LAMMPS (1 Feb 2014)
# 2d Lennard-Jones melt and subsequent energy minimization

units		lj
dimension	2
atom_style	atomic

lattice		sq2 0.8442
Lattice spacing in x,y,z = 1.53919 1.53919 1.53919
region		box block 0 20 0 20 -0.1 0.1
create_box	1 box
Created orthogonal box = (0 0 -0.153919) to (30.7838 30.7838 0.153919)
create_atoms	1 box
Created 800 atoms
mass		1 1.0

velocity	all create 5.0 87287 loop geom

pair_style	lj/cut 2.5
pair_coeff	1 1 1.0 1.0 2.5
pair_modify	shift yes

neighbor	0.3 bin
neigh_modify	delay 0 every 1 check yes

fix		1 all nve
fix		2 all enforce2d

#dump		1 all atom 100 dump.min

#dump		2 all image 50 image.*.jpg type type #		zoom 1.6 adiam 1.5
#dump_modify	2 pad 4

#dump		3 all movie 50 movie.mpg type type #		zoom 1.6 adiam 1.5
#dump_modify	3 pad 4

thermo		100

run		1000
Step Temp E_pair E_mol TotEng Press
0            5    -2.461717            0     2.532033    5.0190509
Averages over the last 6 of 11 rows, steps 500 to 1000:
Temp E_pair E_mol TotEng Press
3.33219 -0.796514 0 2.53151 15.5625
Loop time of 0.199423 on 1 procs for 1000 steps with 800 atoms

Pair  time (%) = 0.127195 (63.7817)
Neigh time (%) = 0.0478823 (24.0104)
Comm  time (%) = 0.00542498 (2.72034)
Outpt time (%) = 0.000106335 (0.0533212)
Other time (%) = 0.0188138 (9.43415)

neigh_modify	delay 0 every 1 check yes

#dump_modify	1 every 25

thermo		50
minimize	1.0e-6 0.001 1000 10000
Step Temp E_pair E_mol TotEng Press
1000    3.3134849   -0.7783474            0    2.5309957    15.658702
Loop time of 0.278112 on 1 procs for 365 steps with 800 atoms

Minimization stats:
  Stopping criterion = energy tolerance
  Energy initial, next-to-last, final =
  Force two-norm initial, final = 1921.37 0.684479
  Force max component initial, final = 298.456 0.229696
  Final line search alpha, max atom move = 0.00501944 0.00115295
  Iterations, force evaluations = 365 1305

Pair  time (%) = 0.231226 (83.1415)
Neigh time (%) = 0.0193577 (6.96039)
Comm  time (%) = 0.00456548 (1.6416)
Outpt time (%) = 7.00951e-05 (0.0252039)
Other time (%) = 0.0228922 (8.2313)
