LAMMPS (18 Feb 2013)
# 2d Lennard-Jones melt and subsequent energy minimization

units		lj
dimension	2
atom_style	atomic

lattice		sq2 0.8442
Lattice spacing in x,y,z = 1.53919 1.53919 1.53919
region		box block 0 20 0 20 -0.1 0.1
create_box	1 box
Created orthogonal box = (0 0 -0.153919) to (30.7838 30.7838 0.153919)
create_atoms	1 box
Created 800 atoms
mass		1 1.0

velocity	all create 5.0 87287 loop geom

pair_style	lj/cut 2.5
pair_coeff	1 1 1.0 1.0 2.5
pair_modify	shift yes

neighbor	0.3 bin
neigh_modify	delay 0 every 1 check yes

fix		1 all nve
fix		2 all enforce2d

#dump		1 all atom 500 dump.min

#dump		1 all image 500 image.*.jpg type type #		zoom 1.6 adiam 1.5
#dump_modify	1 pad 4

thermo		100

run		1000
Step Temp E_pair E_mol TotEng Press
0            5    -2.461717            0     2.532033    5.0190509
Averages over the last 6 of 11 rows, steps 500 to 1000:
Temp E_pair E_mol TotEng Press
3.33219 -0.796514 0 2.53151 15.5625
Loop time of 0.198071 on 1 procs for 1000 steps with 800 atoms

Pair  time (%) = 0.12724 (64.2398)
Neigh time (%) = 0.0467253 (23.5902)
Comm  time (%) = 0.00525904 (2.65513)
Outpt time (%) = 0.000102282 (0.0516388)
Other time (%) = 0.018744 (9.46327)

neigh_modify	delay 0 every 1 check yes

velocity	all create 0.0 1
thermo		50
minimize	1.0e-6 0.001 1000 10000
Step Temp E_pair E_mol TotEng Press
1000            0   -0.7783474            0   -0.7783474    12.864955
Loop time of 0.277047 on 1 procs for 365 steps with 800 atoms

Minimization stats:
  Stopping criterion = energy tolerance
  Energy initial, next-to-last, final =
  Force two-norm initial, final = 1921.37 0.684479
  Force max component initial, final = 298.456 0.229696
  Final line search alpha, max atom move = 0.00501944 0.00115295
  Iterations, force evaluations = 365 1305

Pair  time (%) = 0.231153 (83.4348)
Neigh time (%) = 0.0189683 (6.84662)
Comm  time (%) = 0.00435162 (1.57071)
Outpt time (%) = 6.58035e-05 (0.0237518)
Other time (%) = 0.0225077 (8.12414)

fix             3 all box/relax x 1.0 y 2.0 vmax 1.0e-4 nreset 100

thermo_style    custom step temp pe pxx pyy pxy

min_modify      line quadratic
minimize	0.0 1.0e-6 10000 100000
Step Temp PotEng Pxx Pyy Pxy
1365            0    -2.895477   -1.2253391     -1.16438 0.0029844696
Averages over the last 101 of 202 rows, steps 6400 to 11365:
Temp PotEng Pxx Pyy Pxy
0 -2.94647 0.998847 1.99809 0.133556
Loop time of 2.59322 on 1 procs for 10000 steps with 800 atoms

Minimization stats:
  Stopping criterion = max iterations
  Energy initial, next-to-last, final =
  Force two-norm initial, final = 3665.97 11.745
  Force max component initial, final = 2998.7 10.1406
  Final line search alpha, max atom move = 6.36291e-05 0.00064524
  Iterations, force evaluations = 10000 10063

Pair  time (%) = 1.93249 (74.5208)
Neigh time (%) = 0.00828385 (0.319442)
Comm  time (%) = 0.0284746 (1.09804)
Outpt time (%) = 0.00297451 (0.114703)
Other time (%) = 0.621 (23.947)
