LAMMPS (3 Nov 2022)
# bulk Si lattice

variable        x index 1
variable        y index 1
variable        z index 1

units           metal
atom_style      atomic

atom_style      atomic
lattice         diamond 5.431
Lattice spacing in x,y,z = 5.431 5.431 5.431
region          box block 0 5 0 5 0 5
boundary       p p p

create_box      1 box
Created orthogonal box = (0 0 0) to (27.155 27.155 27.155)
create_atoms    1 box
Created 1000 atoms

pair_style      meam/sw/spline
pair_coeff      * * Si.b.meam.sw.spline Si
Reading meam/sw/spline potential file Si.b.meam.sw.spline with DATE: 2012-10-26
mass            * 28.085

velocity        all create 300.0 376847 loop geom

neighbor        1.0 bin
neigh_modify    every 1 delay 5 check yes

fix             1 all nve

thermo 1
thermo_style    custom step vol etotal press pxx pyy pxz
thermo_modify   format 2 %14.8f
thermo_modify   format 3 %14.8f
thermo_modify   format 4 %14.8f
thermo_modify   format 5 %14.8f
thermo_modify   format 6 %14.8f
thermo_modify   format 7 %14.8f

timestep        0.002
thermo          10

run             2000
Step         Volume         TotEng         Press           Pxx            Pyy            Pxz
0  20023.93474888 -4591.26061752  2033.68946971  2021.11445194  1952.17782797   -97.47450759
Averages over the last 101 of 201 rows, steps 1000 to 2000:
Volume TotEng Press Pxx Pyy Pxz
20023.9 -4591.13 1822.01 1825.72 1826.15 -6.62009
Loop time of 14.4074 on 1 procs for 2000 steps with 1000 atoms
