LAMMPS (1 Feb 2014)
# 2d NEMD simulation

units		lj
atom_style	atomic
dimension	2

lattice		sq2 0.8442
Lattice spacing in x,y,z = 1.53919 1.53919 1.53919
region		box prism 0 10 0 8 -0.5 0.5 0 0 0
create_box	2 box
Created triclinic box = (0 0 -0.769595) to (15.3919 12.3135 0.769595) with tilt (0 0 0)
create_atoms	1 box
Created 160 atoms
mass		* 1.0

velocity	all create 1.44 87287 loop geom

region		slice block 4 6 INF INF INF INF
set		region slice type 2
  40 settings made for type

pair_style	lj/cut 2.5
pair_coeff	* * 1.0 1.0 1.0

neighbor	0.3 bin
neigh_modify	delay 0 every 1

fix		1 all nvt/sllod temp 1.0 1.0 1.0 tchain 1
fix		2 all deform 1 xy erate 0.01 remap v

#dump		1 all custom 5000 dump.nemd id type x y z

#dump		2 all image 1000 image.*.jpg type type adiam 1.2
#dump_modify	2 pad 5

#dump		3 all movie 1000 movie.mpg type type adiam 1.2
#dump_modify	3 pad 5

thermo		1000

run		50000
Step Temp E_pair E_mol TotEng Press Volume
0         1.44            0            0        1.431    1.2080502    189.52855
Averages over the last 26 of 51 rows, steps 25000 to 50000:
Temp E_pair E_mol TotEng Press Volume
0.995352 0.284197 0 1.27333 6.39005 189.529
Loop time of 1.10994 on 1 procs for 50000 steps with 160 atoms

Pair  time (%) = 0.192406 (17.3349)
Neigh time (%) = 0.139588 (12.5762)
Comm  time (%) = 0.0557146 (5.01961)
Outpt time (%) = 0.000450134 (0.0405549)
Other time (%) = 0.721779 (65.0287)
