          *****************************************************
          *                                                   *
          *               PWDFT PSPW Calculation              *
          *                                                   *
          *  [ (Grassmann/Stiefel manifold implementation) ]  *
          *  [              C++ implementation             ]  *
          *                                                   *
          *              version #7.00   02/27/21             *
          *                                                   *
          *    This code was developed by Eric J. Bylaska,    *
          *    Abhishek Bagusetty, David H. Bross, ...        *
          *                                                   *
          *****************************************************
          >>> job started at       Thu May 12 15:16:05 2022 <<<

 psp_library: /home/sjplimp/lammps/git/lib/nwchem/PWDFT/Nwpw/libraryps



 initializing nwpw_APC object
 ----------------------------
 nga =   3 ngs =     9
 Gc  =   2.50000
 APC gamma: 0 0.60000
 APC gamma: 1 0.90000
 APC gamma: 2 1.35000
 APC u:        1        -0.02818
 APC u:        2        -0.02183
 APC u:        3        -0.04499
 - self-consistent

 reading formatted psp filename: ./O.vpp

 reading formatted psp filename: ./H.vpp
 input psi exists, reading from file: ./water-dimer.nw.movecs

          ==============  summary of input  ==================

 input psi filename: ./water-dimer.nw.movecs

 number of processors used: 8
 processor grid           : 8 x1
 parallel mapping         : 2d-hcurve
 parallel mapping         : balanced

 options:
   boundary conditions  = periodic
   electron spin        = restricted
   exchange-correlation = PBE96 (White and Bird) parameterization

 elements involved in the cluster:
      1: O   valence charge :  6.0  lmax=2
             comment : Parameterized (Chem.Phys.Lett., vol 322, page 447) Hamman psp 
             pseudopotential type            :  0
             highest angular component       :  2
             local potential used            :  2
             number of non-local projections :  4
             cutoff =    0.700   0.700   0.700
      2: H   valence charge :  1.0  lmax=1
             comment : Parameterized (Chem.Phys.Lett., vol 322, page 447) Hamman psp 
             pseudopotential type            :  0
             highest angular component       :  1
             local potential used            :  1
             number of non-local projections :  1
             cutoff =    0.800   0.800

 total charge:   0.000

 atom composition:
   O : 1   H : 2

 initial ion positions (au):
   1 O	(   -0.00388    0.94060    5.30618 ) - atomic mass = 15.995
   2 H	(   -1.30565    1.65230    5.69814 ) - atomic mass =  1.008
   3 H	(    0.52792    0.44858    4.18530 ) - atomic mass =  1.008
   G.C.	(   -0.26054    1.01383    5.06321 )
 C.O.M.	(   -0.04697    0.95289    5.26538 )

 number of electrons: spin up=     4 (   4 per task) down=     4 (   4 per task)

 supercell:
      volume =    6748.33
      lattice:    a1=<   18.897    0.000    0.000 >
                  a2=<    0.000   18.897    0.000 >
                  a3=<    0.000    0.000   18.897 >
      reciprocal: b1=<    0.332    0.000    0.000 >
                  b2=<    0.000    0.332    0.000 >
                  b3=<    0.000    0.000    0.332 >
      lattice:    a=      18.897 b=     18.897 c=      18.897
                  alpha=  90.000 beta=  90.000 gamma=  90.000
      density cutoff= 100.000 fft=   90 x   90 x   90  (  161227 waves    20153 per task)
      wavefnc cutoff=  50.000 fft=   90 x   90 x   90  (   56901 waves     7117 per task)

 ewald parameters:
      energy cutoff= 100.000 fft=   90 x   90 x   90  (  161227 waves    20154 per task)
      Ewald summation: cut radius=    6.015 and   1
                       Mandelung Wigner-Seitz=   1.76011888 (alpha=  2.83729748 rs=11.72292445)

 technical parameters:
      time step=        5.80  ficticious mass=  400000.00
      tolerance=   1.000e-07 (energy)    1.000e-07 (density)    1.000e-04 (ion)
      max iterations =       1000 (   10 inner   100 outer)
      minimizer = Grassmann conjugate gradient



     ============ Grassmann conjugate gradient iteration ============
          >>> iteration started at Thu May 12 15:16:06 2022  <<<
     iter.                 Energy          DeltaE        DeltaRho
     ----------------------------------------------------------------
        10      -1.709044170181e+01   -9.440962e-08    1.468669e-17
     *** tolerance ok. iteration terminated
          >>> iteration ended at   Thu May 12 15:16:13 2022  <<<

     ==============  energy results (Molecule object)  ==============


 number of electrons: spin up=     4.00000  down=     4.00000 (real space)

 total     energy    :   -1.7090441702e+01 (   -5.69681e+00 /ion)
 total orbital energy:   -4.4955483659e+00 (   -1.12389e+00 /electron)
 hartree energy      :    1.7961170991e+01 (    4.49029e+00 /electron)
 exc-corr energy     :   -4.4672372387e+00 (   -1.11681e+00 /electron)
 ion-ion energy      :    3.9861853815e+00 (    1.32873e+00 /ion)
 APC energy          :   -5.9166523032e-03 (   -1.97222e-03 /ion)

 kinetic (planewave) :    1.3575166724e+01 (    3.39379e+00 /electron)
 V_local (planewave) :   -4.6453534302e+01 (   -1.16134e+01 /electron)
 V_nl    (planewave) :   -1.7461190799e+00 (   -4.36530e-01 /electron)
 V_Coul  (planewave) :    3.5922341982e+01 (    8.98059e+00 /electron)
 V_xc    (planewave) :   -5.7934036896e+00 (   -1.44835e+00 /electron)
 K.S. V_APC energy   :   -5.9842474836e-02 (   -1.99475e-02 /ion)
 Viral Coefficient   :   -1.3311597167e+00

 orbital energy:
    -2.8567573e-01 (  -7.774eV)
    -3.1475928e-01 (  -8.565eV)
    -6.4696668e-01 ( -17.605eV)
    -1.0003725e+00 ( -27.222eV)


 Ion Forces (au):
   1 O	(   -0.05636    0.12677    0.47582 )
   2 H	(   -0.15080    0.07727    0.02084 )
   3 H	(    0.20660   -0.20381   -0.49586 )



*************************************************************
**                                                         **
**          PSPW Atomic Point Charge (APC) Analysis        **
**                                                         **
**   Point charge analysis based on paper by P.E. Blochl   **
**         (J. Chem. Phys. vol 103, page 7422, 1995)       **
**                                                         **
*************************************************************

 nwpw_APC object
 ---------------
 nga =   3 ngs =     9
 Gc  =   2.50000
 APC gamma: 0 0.60000
 APC gamma: 1 0.90000
 APC gamma: 2 1.35000
 - self-consistent

 APC Potential:
  -0.028176332  -0.021828211  -0.044988033

 APC Point Charges:
  -0.983228472   0.458254390   0.524974082


 charge analysis on each atom
 ----------------------------

      no  atom        Qelc        Qion      Qtotal
   -----  ----     -------     -------     -------
       1    O       -6.983       6.000      -0.983
       2    H       -0.542       1.000       0.458
       3    H       -0.475       1.000       0.525
       Total Q      -8.000       8.000       0.000


 gaussian coefficients of model density
 --------------------------------------

      no  atom     g=0.000     g=0.600     g=0.900     g=1.350
   -----  ----     -------     -------     -------     -------
       1     O       6.000      -1.261      -2.114      -3.608
       2     H       1.000      -0.922       1.088      -0.707
       3     H       1.000      -1.038       1.167      -0.604


 output psi to filename: ./water-dimer.nw.movecs

 -----------------
 cputime in seconds
 prologue    : 6.70000e-01
 main loop   : 6.49000e+00
 epilogue    : 1.10000e-01
 total       : 7.27000e+00
 cputime/step: 2.31786e-01 ( 28 evaluations, 9 linesearches)

 Time spent doing      total        step             percent
 total time            6.156918e+03 2.198899e+02     100.00%
 total FFT time        3.227409e+03 1.152646e+02      52.42%
 lagrange multipliers  5.440821e-02 1.943150e-03       0.00%
 local potentials      4.878728e+01 1.742403e+00       0.79%
 non-local potentials  1.024134e+02 3.657620e+00       1.66%
 ffm_dgemm             2.806113e+01 1.002183e+00       0.46%
 fmf_dgemm             9.861207e+01 3.521860e+00       1.60%
 m_diagonalize         1.641637e-01 5.862991e-03       0.00%
 mmm_multiply          6.580998e-02 2.350357e-03       0.00%

 >>> job completed at     Thu May 12 15:16:13 2022 <<<
