LAMMPS (3 Aug 2023 - Development - patch_2Aug2023-700-g901ed98d31)
### LAMMPS input file

units            metal
dimension        3
boundary         p p p
atom_style       charge

read_data  data.NaPO3
Reading data file ...
  orthogonal box = (0 0 0) to (34.33782 34.33782 34.33782)
  reading atoms ...
  3000 atoms
  reading velocities ...
  3000 velocities

pair_style hybrid/overlay coul/dsf 0.2 12.0 table spline 20000 buck 7.0 nb3b/screened

pair_coeff  * *  coul/dsf
pair_coeff 1  3 table Table_NP.dat  Pair_P-O 7.0
pair_coeff 2  3 table Table_NP.dat  Pair_Na-O 7.0
pair_coeff 3  3 table Table_NP.dat  Pair_O-O 7.0

# pair Buckingham
pair_coeff  1  1  buck  5.093669  0.905598  0.0

# shrm
pair_coeff * * nb3b/screened PSiO.nb3b.screened  P NULL O
Reading nb3b/screened potential file PSiO.nb3b.screened with DATE: 2023-10-30

neighbor         1.0  bin
neigh_modify     every 10 delay 10 check no
timestep         0.002

thermo 100
thermo_style custom step density lx press pe evdwl ecoul temp

#dump 2 all custom 10000 NaPO3-melt.lammpstrj  id type element x y z
#dump_modify 2 element P  Na  O
variable temp equal 2500

fix 1 all npt temp 2500 2500 $(100*dt) iso 1 1 $(1000*dt)
fix 1 all npt temp 2500 2500 0.2000000000000000111 iso 1 1 $(1000*dt)
fix 1 all npt temp 2500 2500 0.2000000000000000111 iso 1 1 2
run 1000
Step        Density           Lx           Press          PotEng         E_vdwl         E_coul          Temp
0   2.509108       34.33782       46464.417     -50581.248      2292.3853     -52873.634      2500
Averages over the last 6 of 11 rows, steps 500 to 1000:
Density Lx Press PotEng E_vdwl E_coul Temp
2.07421 36.5947 10200.3 -49916.9 2254.56 -52171.5 2517.07
Loop time of 9.72954 on 4 procs for 1000 steps with 3000 atoms
