LAMMPS (15 Apr 2020)
# two monomer nylon example
# reaction produces a condensed water molecule

units real

boundary p p p

atom_style full

kspace_style pppm 1.0e-4

pair_style lj/class2/coul/long 8.5

angle_style class2

bond_style class2

dihedral_style class2

improper_style class2

read_data tiny_nylon.data
  orthogonal box = (-25 -25 -25) to (25 25 25)
  reading atoms ...
  44 atoms
  reading velocities ...
  44 velocities
  scanning bonds ...
  scanning angles ...
  scanning dihedrals ...
  scanning impropers ...
  reading bonds ...
  42 bonds
  reading angles ...
  74 angles
  reading dihedrals ...
  100 dihedrals
  reading impropers ...
  44 impropers

variable runsteps equal 1000
variable prob1 equal step/v_runsteps*2
variable prob2 equal (step/v_runsteps)>0.5

velocity all create 300.0 4928459 dist gaussian

molecule mol1 rxn1_stp1_unreacted.data_template
Read molecule template mol1:
  1 molecules
  18 atoms with max type 8
  16 bonds with max type 14
  25 angles with max type 28
  23 dihedrals with max type 36
  14 impropers with max type 11
molecule mol2 rxn1_stp1_reacted.data_template
Read molecule template mol2:
  1 molecules
  18 atoms with max type 9
  17 bonds with max type 13
  31 angles with max type 27
  39 dihedrals with max type 33
  20 impropers with max type 1
molecule mol3 rxn1_stp2_unreacted.data_template
Read molecule template mol3:
  1 molecules
  15 atoms with max type 9
  14 bonds with max type 13
  25 angles with max type 27
  30 dihedrals with max type 33
  16 impropers with max type 1
molecule mol4 rxn1_stp2_reacted.data_template
Read molecule template mol4:
  1 molecules
  15 atoms with max type 11
  13 bonds with max type 15
  19 angles with max type 29
  16 dihedrals with max type 32
  10 impropers with max type 13

thermo 50

# dump 1 all xyz 1 test_vis.xyz

fix myrxns all bond/react stabilization yes statted_grp .03   react rxn1 all 1 0.0 5.0 mol1 mol2 rxn1_stp1_map prob v_prob1 1234   react rxn2 all 1 0.0 5.0 mol3 mol4 rxn1_stp2_map prob v_prob2 1234
dynamic group bond_react_MASTER_group defined
dynamic group statted_grp_REACT defined

fix 1 statted_grp_REACT nvt temp 300 300 100

# optionally, you can customize behavior of reacting atoms,
# by using the internally-created 'bond_react_MASTER_group', like so:
fix 4 bond_react_MASTER_group temp/rescale 1 300 300 10 1

thermo_style custom step temp press density v_prob1 v_prob2 f_myrxns[1] f_myrxns[2]

# restart 100 restart1 restart2

run 1000
PPPM initialization ...
  G vector (1/distance) = 0.0534597
  grid = 2 2 2
  stencil order = 5
  estimated absolute RMS force accuracy = 0.0402256
  estimated relative force accuracy = 0.000121138
  3d grid and FFT values/proc = 252 2
  update every 1 steps, delay 10 steps, check yes
Step Temp Press Density v_prob1 v_prob2 f_myrxns[1] f_myrxns[2]
0          300    346.78165 0.0034851739            0            0            0            0
Averages over the last 11 of 21 rows, steps 500 to 1000:
Temp Press Density v_prob1 v_prob2 f_myrxns[1] f_myrxns[2]
282.819 1.23739 0.00348517 1.5 0.909091 1 0.909091
Loop time of 0.357762 on 4 procs for 1000 steps with 44 atoms

# write_restart restart_longrun
# write_data restart_longrun.data

Please see the log.cite file for references relevant to this simulation
