LAMMPS (30 Oct 2019)
# bcc iron in a 3d periodic box

clear
units 		metal
atom_style 	spin

dimension 	3
boundary 	p p p

# necessary for the serial algorithm (sametag)
atom_modify 	map array

lattice 	bcc 2.8665
Lattice spacing in x,y,z = 2.8665 2.8665 2.8665
region 		box block 0.0 5.0 0.0 5.0 0.0 5.0
create_box 	1 box
Created orthogonal box = (0 0 0) to (14.3325 14.3325 14.3325)
create_atoms 	1 box
Created 250 atoms

# setting mass, mag. moments, and interactions for bcc iron

mass		1 55.845

set 		group all spin/random 31 2.2
  250 settings made for spin/random
# set 		group all spin 2.2 0.0 0.0 1.0
velocity 	all create 100 4928459 rot yes dist gaussian

pair_style 	hybrid/overlay eam/alloy spin/exchange 3.5
pair_coeff 	* * eam/alloy Fe_Mishin2006.eam.alloy Fe
pair_coeff 	* * spin/exchange exchange 3.4 0.02726 0.2171 1.841

neighbor 	0.1 bin
neigh_modify 	every 10 check yes delay 20

fix 		1 all precession/spin zeeman 0.0 0.0 0.0 1.0
fix 		2 all langevin/spin 0.0 0.0 21

fix 		3 all nve/spin lattice moving
timestep	0.0001

# compute and output options

compute 	out_mag    all spin
compute 	out_pe     all pe
compute 	out_ke     all ke
compute 	out_temp   all temp

variable 	magz      equal c_out_mag[3]
variable 	magnorm   equal c_out_mag[4]
variable 	emag      equal c_out_mag[5]
variable 	tmag      equal c_out_mag[6]

thermo_style    custom step time v_magnorm v_tmag temp v_emag ke pe press etotal
thermo          50

compute 	outsp all property/atom spx spy spz sp fmx fmy fmz
dump 		1 all custom 100 dump_iron.lammpstrj type x y z c_outsp[1] c_outsp[2] c_outsp[3]

run 		1000
  update every 10 steps, delay 20 steps, check yes
Step Time v_magnorm v_tmag Temp v_emag KinEng PotEng Press TotEng
0            0  0.076456975    4554.5462    100.00358  -0.85791269    3.2186929   -1070.8579    394.43342   -1067.6392
Averages over the last 11 of 21 rows, steps 500 to 1000:
v_magnorm v_tmag Temp v_emag KinEng PotEng Press TotEng
0.0764572 3339.01 51.8709 -1.16275 1.6695 -1069.31 3346.09 -1067.64
Loop time of 2.27244 on 4 procs for 1000 steps with 250 atoms

Please see the log.cite file for references relevant to this simulation
