LAMMPS (1 Feb 2014)
# 3d metal shear simulation

units		metal
boundary	s s p

atom_style	atomic
lattice		fcc 3.52
Lattice spacing in x,y,z = 3.52 3.52 3.52
region		box block 0 16.0 0 10.0 0 2.828427
create_box	3 box
Created orthogonal box = (0 0 0) to (56.32 35.2 9.95606)

lattice		fcc 3.52 orient	x 1 0 0 orient y 0 1 1 orient z 0 -1 1 		origin 0.5 0 0
Lattice spacing in x,y,z = 3.52 4.97803 4.97803
create_atoms	1 box
Created 1912 atoms

pair_style	eam
pair_coeff	* * Ni_u3.eam

neighbor	0.3 bin
neigh_modify	delay 5

region		lower block INF INF INF 0.9 INF INF
region		upper block INF INF 6.1 INF INF INF
group		lower region lower
264 atoms in group lower
group		upper region upper
264 atoms in group upper
group		boundary union lower upper
528 atoms in group boundary
group		mobile subtract all boundary
1384 atoms in group mobile

set		group lower type 2
  264 settings made for type
set		group upper type 3
  264 settings made for type

# void

region		void cylinder z 8 3.535534 2.5 INF INF
delete_atoms	region void
Deleted 204 atoms, new total = 1708

# temp controllers

compute		new3d mobile temp
compute		new2d mobile temp/partial 0 1 1

# equilibrate

velocity	mobile create 300.0 5812775 temp new3d
fix		1 all nve
fix		2 boundary setforce 0.0 0.0 0.0

fix		3 mobile temp/rescale 10 300.0 300.0 10.0 1.0
fix_modify	3 temp new3d

thermo		25
thermo_modify	temp new3d

timestep	0.001
run		100
Step Temp E_pair E_mol TotEng Press Volume
0          300   -7358.6159            0   -7312.8966   -9600.8353     19547.02
Loop time of 0.209278 on 1 procs for 100 steps with 1708 atoms

Pair  time (%) = 0.195591 (93.4599)
Neigh time (%) = 0.00736594 (3.51969)
Comm  time (%) = 0.001688 (0.806585)
Outpt time (%) = 6.91414e-05 (0.0330381)
Other time (%) = 0.00456381 (2.18074)

# shear

velocity	upper set 1.0 0 0
velocity	mobile ramp vx 0.0 1.0 y 1.4 8.6 sum yes

unfix		3
fix		3 mobile temp/rescale 10 300.0 300.0 10.0 1.0
fix_modify	3 temp new2d

#dump		1 all atom 100 dump.shear.void

#dump		2 all image 100 image.*.jpg type type #		axes yes 0.8 0.02 view 0 0 zoom 1.5 up 0 1 0 adiam 2.0
#dump_modify	2 pad 4

#dump		3 all movie 100 movie.mpg type type #		axes yes 0.8 0.02 view 0 0 zoom 1.5 up 0 1 0 adiam 2.0
#dump_modify	3 pad 4

thermo		100
thermo_modify	temp new2d

reset_timestep	0
run		3000
Step Temp E_pair E_mol TotEng Press Volume
0    296.81549   -7297.4174            0   -7267.2741    785.80272    19779.424
Averages over the last 16 of 31 rows, steps 1500 to 3000:
Temp E_pair E_mol TotEng Press Volume
301.729 -7265.15 0 -7234.51 -15748.8 22286.8
Loop time of 6.38739 on 1 procs for 3000 steps with 1708 atoms

Pair  time (%) = 5.8135 (91.0153)
Neigh time (%) = 0.385951 (6.04239)
Comm  time (%) = 0.0530334 (0.830282)
Outpt time (%) = 0.00047183 (0.0073869)
Other time (%) = 0.134431 (2.10463)
