LAMMPS (27 Jun 2024)
# pouring spheres into box made of triangles

units		lj
atom_style	tri
atom_modify     map array
boundary        f f f
dimension	3
comm_modify     vel yes

region          box block -10 10 -10 10 -10 10 units box
create_box      2 box
Created orthogonal box = (-10 -10 -10) to (10 10 10)

fix             20 all surface/local surf.tribox.stl
Reading STL object STL version of surf.tribox from text file surf.tribox.stl
set             type 1 type 2
Setting atom values ...
  24 settings made for type

pair_style	hybrid gran/hooke 4000.0 NULL 100.0 NULL 0.5 1                 tri/gran/hooke 4000.0 NULL 100.0 50.0 0.5 1
pair_coeff	1 1 gran/hooke
pair_coeff	1 2 tri/gran/hooke
pair_coeff	2 2 none

group           sphere type 1
0 atoms in group sphere
group           tri type 2
24 atoms in group tri

neighbor	0.3 bin
neigh_modify	delay 0 every 1 check yes

#displace_atoms  all rotate 0 0 0 0 0 1 45

fix             2 sphere nve/sphere
fix		3 sphere gravity 1.0 vector 0 0 -1
#fix             4 sphere viscous 0.2

region          slab block -2 2 -2 2 -2 2 units box
fix             ins sphere pour 100 1 4767548 vol 0.4 10 	        diam one 1.0 region slab ignore
Particle insertion: 48 every 566 steps, 100 by step 1133

timestep	0.005

compute         1 sphere temp
compute_modify  1 dynamic yes

compute         2 sphere temp/sphere
compute_modify  2 dynamic yes

thermo		100
thermo_style	custom step atoms temp c_1 c_2 press
thermo_modify   lost ignore
compute_modify  thermo_temp dynamic yes

dump		2 all image 100 tmp.image.*.ppm type type 		zoom 1.4 adiam 1.0 tri type 2 0.2
dump_modify	2 pad 5

run	        5000
Generated 0 of 1 mixed pair_coeff terms from geometric mixing rule
Step        Atoms         Temp           c_1            c_2           Press
0          24   0              0              0              0
Averages over the last 26 of 51 rows, steps 2500 to 5000:
Atoms Temp c_1 c_2 Press
124 0.00209655 0.00260481 0.00214503 0.00121135
Loop time of 0.4577 on 4 procs for 5000 steps with 124 atoms

fix             1 tri move rotate 0 0 0 0 0 1 25
run	        5000
Generated 0 of 1 mixed pair_coeff terms from geometric mixing rule
Step        Atoms         Temp           c_1            c_2           Press
5000         124   0.00013814109  0.00017162984  0.00019806357  0.0011393845
Averages over the last 26 of 51 rows, steps 7500 to 10000:
Atoms Temp c_1 c_2 Press
124 5.38272 0.317478 0.158794 0.0852898
Loop time of 0.409799 on 4 procs for 5000 steps with 124 atoms

unfix           1
set             type 1 angmom 0.0 0.0 0.0
Setting atom values ...
  100 settings made for angmom
velocity        tri set 0.0 0.0 0.0
run             5000
Generated 0 of 1 mixed pair_coeff terms from geometric mixing rule
Step        Atoms         Temp           c_1            c_2           Press
10000         124   0.25799668     0.32054133     0.16038666     0.011646419
Averages over the last 26 of 51 rows, steps 12500 to 15000:
Atoms Temp c_1 c_2 Press
124 0.00492189 0.00611507 0.0147842 0.00183607
Loop time of 0.388132 on 4 procs for 5000 steps with 124 atoms

fix             1 tri move rotate 0 0 0 1 1 1 25
run	        5000
Generated 0 of 1 mixed pair_coeff terms from geometric mixing rule
Step        Atoms         Temp           c_1            c_2           Press
15000         124   0.0040016693   0.004971771    0.015227426    0.0015086634
Averages over the last 26 of 51 rows, steps 17500 to 20000:
Atoms Temp c_1 c_2 Press
124 5.47025 0.426226 0.238717 0.0900131
Loop time of 0.446069 on 4 procs for 5000 steps with 124 atoms

unfix           1
set             type 1 angmom 0.0 0.0 0.0
Setting atom values ...
  100 settings made for angmom
velocity        tri set 0.0 0.0 0.0
run             5000
Generated 0 of 1 mixed pair_coeff terms from geometric mixing rule
Step        Atoms         Temp           c_1            c_2           Press
20000         124   0.24447869     0.30374625     0.16190487    -0.013113207
Averages over the last 26 of 51 rows, steps 22500 to 25000:
Atoms Temp c_1 c_2 Press
124 0.00828423 0.0102925 0.0107255 0.00219576
Loop time of 0.422905 on 4 procs for 5000 steps with 124 atoms
