LAMMPS (27 Jun 2024)
# pouring spheres into box made of triangles

units		lj
atom_style	sphere
#atom_modify     map array
boundary        f f f
dimension	3
comm_modify     vel yes

region          box block -10 10 -10 10 -10 10 units box
create_box	2 box   # simply for dump_modify to color lines = green
Created orthogonal box = (-10 -10 -10) to (10 10 10)

pair_style	gran/hooke 4000.0 NULL 100.0 NULL 0.5 1
pair_coeff      * *

neighbor	0.3 bin
neigh_modify	delay 0 every 1 check yes

#displace_atoms  all rotate 0 0 0 0 0 1 45

fix             20 all surface/global surf.tribox.stl hooke                 4000.0 NULL 100.0 NULL 0.5 1
Reading STL object STL version of surf.tribox from text file surf.tribox.stl
#fix             20 all surface/global surf.tribox.stl hooke/history #                4000.0 NULL 100.0 NULL 0.5 1

fix             2 all nve/sphere
fix		3 all gravity 1.0 vector 0 0 -1
#fix             4 all viscous 0.2

region          slab block -2 2 -2 2 -2 2 units box
fix             ins all pour 100 1 4767548 vol 0.4 10 	        diam one 1.0 region slab ignore
Particle insertion: 48 every 566 steps, 100 by step 1133

timestep	0.005

compute         1 all temp
compute_modify  1 dynamic yes

compute         2 all temp/sphere
compute_modify  2 dynamic yes

thermo		100
thermo_style	custom step atoms temp c_1 c_2 press
thermo_modify   lost ignore
compute_modify  thermo_temp dynamic yes

dump		2 all image 100 tmp.image.*.ppm type type 		zoom 1.4 adiam 1.0 fix 20 type 2 0.5
dump_modify	2 pad 5

run	        5000
Generated 0 of 1 mixed pair_coeff terms from geometric mixing rule
Step        Atoms         Temp           c_1            c_2           Press
0           0   0              0              0              0
Averages over the last 26 of 51 rows, steps 2500 to 5000:
Atoms Temp c_1 c_2 Press
100 0.00263235 0.00263235 0.00215199 0.000141741
Loop time of 0.542754 on 4 procs for 5000 steps with 100 atoms

fix_modify      20 move rotate 0 0 0 0 0 1 25
run	        5000
Generated 0 of 1 mixed pair_coeff terms from geometric mixing rule
Step        Atoms         Temp           c_1            c_2           Press
5000         100   0.00018816565  0.00018816565  0.00020135634  4.4246792e-05
Averages over the last 26 of 51 rows, steps 7500 to 10000:
Atoms Temp c_1 c_2 Press
100 0.314923 0.314923 0.157684 0.00509523
Loop time of 0.522575 on 4 procs for 5000 steps with 100 atoms

fix_modify      20 move none
run             5000
Generated 0 of 1 mixed pair_coeff terms from geometric mixing rule
Step        Atoms         Temp           c_1            c_2           Press
10000         100   0.31969811     0.31969811     0.15997735     0.005039886
Averages over the last 26 of 51 rows, steps 12500 to 15000:
Atoms Temp c_1 c_2 Press
100 0.00191942 0.00191942 0.0016459 5.88957e-05
Loop time of 0.518427 on 4 procs for 5000 steps with 100 atoms

fix_modify      20 move rotate 0 0 0 1 1 1 25
run	        5000
Generated 0 of 1 mixed pair_coeff terms from geometric mixing rule
Step        Atoms         Temp           c_1            c_2           Press
15000         100   0.0010255325   0.0010255325   0.00094590806  1.4814045e-05
Averages over the last 26 of 51 rows, steps 17500 to 20000:
Atoms Temp c_1 c_2 Press
100 0.376744 0.376744 0.219885 0.00945065
Loop time of 0.554453 on 4 procs for 5000 steps with 100 atoms

fix_modify      20 move none
run             5000
Generated 0 of 1 mixed pair_coeff terms from geometric mixing rule
Step        Atoms         Temp           c_1            c_2           Press
20000         100   0.34377432     0.34377432     0.1841787      0.0092764528
Averages over the last 26 of 51 rows, steps 22500 to 25000:
Atoms Temp c_1 c_2 Press
100 0.00854922 0.00854922 0.00636139 0.000477637
Loop time of 0.531538 on 4 procs for 5000 steps with 100 atoms
