LAMMPS (27 Jun 2024)
# pouring spheres into box made of triangles

units		lj
atom_style	sphere
#atom_modify     map array
boundary        f f f
dimension	3
comm_modify     vel yes

region          box block -7 7 -7 7 0 9 units box
create_box	2 box   # simply for dump_modify to color lines = green
Created orthogonal box = (-7 -7 0) to (7 7 9)

pair_style	gran/hooke/history 4000.0 NULL 100.0 NULL 0.5 1
pair_coeff	* *

neighbor	0.3 bin
neigh_modify	delay 0 every 1 check yes

#displace_atoms  all rotate 0 0 0 0 0 1 45

molecule        tris surf.tri
Read molecule template tris:
LAMMPS data file for tri plane
  1 molecules
  0 fragments
  0 atoms with max type 0
  0 bonds with max type 0
  0 angles with max type 0
  0 dihedrals with max type 0
  0 impropers with max type 0
  4 triangles with 5 points

fix             20 all surface/global tris hooke                 4000.0 NULL 100.0 NULL 0.5 1
#fix             20 all surface/global tris hooke/history #                4000.0 NULL 100.0 NULL 0.5 1

fix             2 all nve/sphere
fix		3 all gravity 1.0 vector 0 0 -1
#fix             4 all viscous 0.2

region          slab block -2 2 -2 2 7 9 units box
fix             ins all pour 100 1 4767548 vol 0.4 10 	        diam one 1.0 region slab ignore
Particle insertion: 24 every 400 steps, 100 by step 1601

fix             wall all wall/gran hooke/history 4000.0 NULL 100.0 NULL 0.5 1                 zcylinder 7.0

timestep	0.005

compute         1 all temp
compute_modify  1 dynamic yes

compute         2 all temp/sphere
compute_modify  2 dynamic yes

thermo		100
thermo_style	custom step atoms temp c_1 c_2 press
thermo_modify   lost ignore
compute_modify  thermo_temp dynamic yes

dump		2 all image 100 tmp.image.*.ppm type type 		zoom 1.4 adiam 1.0 fix 20 type 2 0.5
dump_modify	2 pad 5

run	        5000
Generated 0 of 1 mixed pair_coeff terms from geometric mixing rule
Step        Atoms         Temp           c_1            c_2           Press
0           0   0              0              0              0
Averages over the last 26 of 51 rows, steps 2500 to 5000:
Atoms Temp c_1 c_2 Press
96.6538 0.00825162 0.00825162 0.00662646 0.00111984
Loop time of 0.363222 on 4 procs for 5000 steps with 96 atoms

fix_modify      20 move rotate 0 0 0 0 0 1 25
run	        5000
Generated 0 of 1 mixed pair_coeff terms from geometric mixing rule
Step        Atoms         Temp           c_1            c_2           Press
5000          96   0.00061981936  0.00061981936  0.00078233948  0.00061520755
Averages over the last 26 of 51 rows, steps 7500 to 10000:
Atoms Temp c_1 c_2 Press
52.5385 0.048917 0.048917 0.0482877 0.0016474
Loop time of 0.306426 on 4 procs for 5000 steps with 44 atoms

fix_modify      20 move none
run             5000
Generated 0 of 1 mixed pair_coeff terms from geometric mixing rule
Step        Atoms         Temp           c_1            c_2           Press
10000          44   0.040236277    0.040236277    0.045816406    0.00099979881
Averages over the last 26 of 51 rows, steps 12500 to 15000:
Atoms Temp c_1 c_2 Press
43.5 0.000518419 0.000518419 0.000690349 9.71844e-05
Loop time of 0.301772 on 4 procs for 5000 steps with 43 atoms
