LAMMPS (27 Jun 2024)
# pouring spheres into box made of line segments

units		lj
atom_style	sphere
#atom_modify     map array
boundary        f f p
dimension	2
comm_modify     vel yes

region		box block -15 15 -15 15 -0.5 0.5 units box
create_box	2 box
Created orthogonal box = (-15 -15 -0.5) to (15 15 0.5)

pair_style	gran/hooke/history 4000.0 NULL 100.0 NULL 0.5 1
pair_coeff	* *

neighbor	0.3 bin
neigh_modify	delay 0 every 1 check yes

#displace_atoms  all rotate 0 0 0 0 0 1 90

molecule        lines surf.line
Read molecule template lines:
LAMMPS molecule file for line box
  1 molecules
  0 fragments
  0 atoms with max type 0
  0 bonds with max type 0
  0 angles with max type 0
  0 dihedrals with max type 0
  0 impropers with max type 0
  9 lines with 11 points

fix             20 all surface/global lines hooke                 4000.0 NULL 100.0 NULL 0.5 1
#fix             20 all surface/global lines hooke/history #                4000.0 NULL 100.0 NULL 0.5 1

# rotate the box

fix_modify      20 move rotate 0 0 0 0 0 1 25

fix             2 all nve/sphere
fix		3 all gravity 1.0 vector 0 -1 0
#fix             4 all viscous 0.2

region          slab block -3 3 -2 2 -0.5 0.5 units box
fix             ins all pour 100 1 4767548 vol 0.4 10 	        diam one 1.0 region slab
Particle insertion: 12 every 566 steps, 100 by step 4529

fix		10 all enforce2d

timestep	0.005

compute         1 all temp
compute_modify  1 dynamic yes

compute         2 all temp/sphere
compute_modify  2 dynamic yes

thermo		100
thermo_style	custom step atoms temp c_1 c_2 press
thermo_modify   lost ignore
compute_modify  thermo_temp dynamic yes

dump		2 all image 100 tmp.image.*.ppm type type 		zoom 1.6 adiam 1.0 fix 20 type 0.5 0.0
dump_modify	2 pad 5

run	        10000
Generated 0 of 1 mixed pair_coeff terms from geometric mixing rule
Step        Atoms         Temp           c_1            c_2           Press
0           0   0              0              0              0
Averages over the last 51 of 101 rows, steps 5000 to 10000:
Atoms Temp c_1 c_2 Press
93.8824 1.99189 1.99189 1.35822 0.282519
Loop time of 0.59471 on 4 procs for 10000 steps with 81 atoms
