LAMMPS (27 Jun 2024)
# pouring spheres into box made of line segments

units		lj
atom_style	line
atom_modify     map array
boundary        f f p
dimension	2
comm_modify     vel yes

region		box block -15 15 -15 15 -0.5 0.5 units box
create_box	2 box
Created orthogonal box = (-15 -15 -0.5) to (15 15 0.5)

molecule        lines surf.line
Read molecule template lines:
LAMMPS molecule file for line box
  1 molecules
  0 fragments
  0 atoms with max type 0
  0 bonds with max type 0
  0 angles with max type 0
  0 dihedrals with max type 0
  0 impropers with max type 0
  9 lines
fix             20 all surface/local lines

pair_style	hybrid gran/hooke/history 4000.0 NULL 100.0 NULL 0.5 1                 line/gran/hooke 4000.0 NULL 100.0 NULL 0.5 1
pair_coeff	1 1 gran/hooke/history
pair_coeff	1 2 line/gran/hooke
pair_coeff	2 2 none

group           sphere type 1
0 atoms in group sphere
group           line type 2
9 atoms in group line

neighbor	0.3 bin
neigh_modify	delay 0 every 1 check yes

#displace_atoms  all rotate 0 0 0 0 0 1 90

# rotate the box

fix             1 line move rotate 0 0 0 0 0 1 25

fix             2 sphere nve/sphere
fix		3 sphere gravity 1.0 vector 0 -1 0
#fix             4 sphere viscous 0.2

region          slab block -3 3 -2 2 -0.5 0.5 units box
fix             ins sphere pour 100 1 4767548 vol 0.4 10 	        diam one 1.0 region slab
Particle insertion: 12 every 566 steps, 100 by step 4529

fix		10 all enforce2d

timestep	0.005

compute         1 sphere temp
compute_modify  1 dynamic yes

compute         2 sphere temp/sphere
compute_modify  2 dynamic yes

thermo		100
thermo_style	custom step atoms temp c_1 c_2 press
thermo_modify   lost ignore
compute_modify  thermo_temp dynamic yes

dump		2 all image 100 tmp.image.*.ppm type type 		zoom 1.6 adiam 1.0 line type 0.5
dump_modify	2 pad 5

run	       10000
Generated 0 of 1 mixed pair_coeff terms from geometric mixing rule
Step        Atoms         Temp           c_1            c_2           Press
0           9   0              0              0              0
Averages over the last 51 of 101 rows, steps 5000 to 10000:
Atoms Temp c_1 c_2 Press
105.137 4.56623 1.96553 1.33796 0.627551
Loop time of 0.360523 on 1 procs for 10000 steps with 96 atoms
