LAMMPS (27 Jun 2024)
# pouring spheres into box made of triangles

units		lj
atom_style	sphere
#atom_modify     map array
boundary        f f f
dimension	3
comm_modify     vel yes

region          box block -7 7 -7 7 0 9 units box
create_box	2 box   # simply for dump_modify to color lines = green
Created orthogonal box = (-7 -7 0) to (7 7 9)

pair_style	gran/hooke/history 4000.0 NULL 100.0 NULL 0.5 1
pair_coeff	* *

neighbor	0.3 bin
neigh_modify	delay 0 every 1 check yes

#displace_atoms  all rotate 0 0 0 0 0 1 45

fix             20 all surface/global surf.tri.stl hooke                 4000.0 NULL 100.0 NULL 0.5 1
Reading STL object STL version of surf.tri from text file surf.tri.stl
#fix             20 all surface/global surf.tri.stl hooke/history #                4000.0 NULL 100.0 NULL 0.5 1

fix             2 all nve/sphere
fix		3 all gravity 1.0 vector 0 0 -1
#fix             4 all viscous 0.2

region          slab block -2 2 -2 2 7 9 units box
fix             ins all pour 100 1 4767548 vol 0.4 10 	        diam one 1.0 region slab ignore
Particle insertion: 24 every 400 steps, 100 by step 1601

fix             wall all wall/gran hooke/history 4000.0 NULL 100.0 NULL 0.5 1                 zcylinder 7.0

timestep	0.005

compute         1 all temp
compute_modify  1 dynamic yes

compute         2 all temp/sphere
compute_modify  2 dynamic yes

thermo		100
thermo_style	custom step atoms temp c_1 c_2 press
thermo_modify   lost ignore
compute_modify  thermo_temp dynamic yes

dump		2 all image 100 tmp.image.*.ppm type type 		zoom 1.4 adiam 1.0 fix 20 type 2 0.5
dump_modify	2 pad 5

run	        5000
Generated 0 of 1 mixed pair_coeff terms from geometric mixing rule
Step        Atoms         Temp           c_1            c_2           Press
0           0   0              0              0              0
Averages over the last 26 of 51 rows, steps 2500 to 5000:
Atoms Temp c_1 c_2 Press
96.6538 0.00826415 0.00826415 0.00664511 0.00118576
Loop time of 12.6651 on 1 procs for 5000 steps with 96 atoms

fix_modify      20 move rotate 0 0 0 0 0 1 25
run	        5000
Generated 0 of 1 mixed pair_coeff terms from geometric mixing rule
Step        Atoms         Temp           c_1            c_2           Press
5000          96   0.00063786253  0.00063786253  0.00084144507  0.00068409102
Averages over the last 26 of 51 rows, steps 7500 to 10000:
Atoms Temp c_1 c_2 Press
51.7308 0.0413514 0.0413514 0.0447664 0.00126193
Loop time of 11.4047 on 1 procs for 5000 steps with 40 atoms

fix_modify      20 move none
run             5000
Generated 0 of 1 mixed pair_coeff terms from geometric mixing rule
Step        Atoms         Temp           c_1            c_2           Press
10000          40   0.032867612    0.032867612    0.041673148    0.00072685327
Averages over the last 26 of 51 rows, steps 12500 to 15000:
Atoms Temp c_1 c_2 Press
36.0385 0.000743025 0.000743025 0.00225928 7.49485e-05
Loop time of 9.86119 on 1 procs for 5000 steps with 35 atoms
