LAMMPS (27 Jun 2024)
# pouring spheres into box made of triangles

units		lj
atom_style	sphere
#atom_modify     map array
boundary        f f f
dimension	3
comm_modify     vel yes

region          box block -10 10 -10 10 -10 10 units box
create_box	2 box   # simply for dump_modify to color lines = green
Created orthogonal box = (-10 -10 -10) to (10 10 10)

pair_style	gran/hooke 4000.0 NULL 100.0 NULL 0.5 1
pair_coeff      * *

neighbor	0.3 bin
neigh_modify	delay 0 every 1 check yes

#displace_atoms  all rotate 0 0 0 0 0 1 45

molecule        tris surf.tribox
Read molecule template tris:
LAMMPS data file for tri box
  1 molecules
  0 fragments
  0 atoms with max type 0
  0 bonds with max type 0
  0 angles with max type 0
  0 dihedrals with max type 0
  0 impropers with max type 0
  24 triangles with 14 points

fix             20 all surface/global tris hooke                 4000.0 NULL 100.0 NULL 0.5 1
#fix             20 all surface/global tris hooke/history #                4000.0 NULL 100.0 NULL 0.5 1

fix             2 all nve/sphere
fix		3 all gravity 1.0 vector 0 0 -1
#fix             4 all viscous 0.2

region          slab block -2 2 -2 2 -2 2 units box
fix             ins all pour 100 1 4767548 vol 0.4 10 	        diam one 1.0 region slab ignore
Particle insertion: 48 every 566 steps, 100 by step 1133

timestep	0.005

compute         1 all temp
compute_modify  1 dynamic yes

compute         2 all temp/sphere
compute_modify  2 dynamic yes

thermo		100
thermo_style	custom step atoms temp c_1 c_2 press
thermo_modify   lost ignore
compute_modify  thermo_temp dynamic yes

dump		2 all image 100 tmp.image.*.ppm type type 		zoom 1.4 adiam 1.0 fix 20 type 2 0.5
dump_modify	2 pad 5

run	        5000
Generated 0 of 1 mixed pair_coeff terms from geometric mixing rule
Step        Atoms         Temp           c_1            c_2           Press
0           0   0              0              0              0
Averages over the last 26 of 51 rows, steps 2500 to 5000:
Atoms Temp c_1 c_2 Press
100 0.0026211 0.0026211 0.00214415 0.000124143
Loop time of 0.377792 on 1 procs for 5000 steps with 100 atoms

fix_modify      20 move rotate 0 0 0 0 0 1 25
run	        5000
Generated 0 of 1 mixed pair_coeff terms from geometric mixing rule
Step        Atoms         Temp           c_1            c_2           Press
5000         100   0.00019733184  0.00019733184  0.00020831062  2.6930089e-05
Averages over the last 26 of 51 rows, steps 7500 to 10000:
Atoms Temp c_1 c_2 Press
100 0.317938 0.317938 0.15921 0.00525838
Loop time of 0.395516 on 1 procs for 5000 steps with 100 atoms

fix_modify      20 move none
run             5000
Generated 0 of 1 mixed pair_coeff terms from geometric mixing rule
Step        Atoms         Temp           c_1            c_2           Press
10000         100   0.32685101     0.32685101     0.16333907     0.0052114688
Averages over the last 26 of 51 rows, steps 12500 to 15000:
Atoms Temp c_1 c_2 Press
100 0.00145494 0.00145494 0.00129405 2.90704e-05
Loop time of 0.389832 on 1 procs for 5000 steps with 100 atoms

fix_modify      20 move rotate 0 0 0 1 1 1 25
run	        5000
Generated 0 of 1 mixed pair_coeff terms from geometric mixing rule
Step        Atoms         Temp           c_1            c_2           Press
15000         100   0.00095883902  0.00095883902  0.00080522184  1.1865633e-05
Averages over the last 26 of 51 rows, steps 17500 to 20000:
Atoms Temp c_1 c_2 Press
100 0.435078 0.435078 0.244673 0.00909019
Loop time of 0.416473 on 1 procs for 5000 steps with 100 atoms

fix_modify      20 move none
run             5000
Generated 0 of 1 mixed pair_coeff terms from geometric mixing rule
Step        Atoms         Temp           c_1            c_2           Press
20000         100   0.31549601     0.31549601     0.17276762     0.011924862
Averages over the last 26 of 51 rows, steps 22500 to 25000:
Atoms Temp c_1 c_2 Press
100 0.00699202 0.00699202 0.00528878 0.000457339
Loop time of 0.394353 on 1 procs for 5000 steps with 100 atoms
