LAMMPS (27 Jun 2024)
# pouring spheres into box made of triangles

units		lj
atom_style	tri
atom_modify     map array
boundary        f f f
dimension	3
comm_modify     vel yes

region          box block -7 7 -7 7 0 9 units box
create_box      2 box
Created orthogonal box = (-7 -7 0) to (7 7 9)

fix             20 all surface/local surf.tri.stl
Reading STL object STL version of surf.tri from text file surf.tri.stl
set             type 1 type 2
Setting atom values ...
  4 settings made for type

pair_style	hybrid gran/hooke/history 4000.0 NULL 100.0 NULL 0.5 1                 tri/gran/hooke 4000.0 NULL 100.0 50.0 0.5 1
pair_coeff	1 1 gran/hooke/history
pair_coeff	1 2 tri/gran/hooke
pair_coeff	2 2 none

group           sphere type 1
0 atoms in group sphere
group           tri type 2
4 atoms in group tri

neighbor	0.3 bin
neigh_modify	delay 0 every 1 check yes

#displace_atoms  all rotate 0 0 0 0 0 1 45

fix             2 sphere nve/sphere
fix		3 sphere gravity 1.0 vector 0 0 -1
#fix             4 sphere viscous 0.2

region          slab block -2 2 -2 2 7 9 units box
fix             ins sphere pour 100 1 4767548 vol 0.4 10 	        diam one 1.0 region slab ignore
Particle insertion: 24 every 400 steps, 100 by step 1601

fix             wall sphere wall/gran hooke/history 4000.0 NULL 100.0 NULL 0.5 1                 zcylinder 7.0

timestep	0.005

compute         1 sphere temp
compute_modify  1 dynamic yes

compute         2 sphere temp/sphere
compute_modify  2 dynamic yes

thermo		100
thermo_style	custom step atoms temp c_1 c_2 press
thermo_modify   lost ignore
compute_modify  thermo_temp dynamic yes

dump		2 all image 100 tmp.image.*.ppm type type 		zoom 1.4 adiam 1.0 tri type 2 0.2
dump_modify	2 pad 5

run	        5000
Generated 0 of 1 mixed pair_coeff terms from geometric mixing rule
Step        Atoms         Temp           c_1            c_2           Press
0           4   0              0              0              0
Averages over the last 26 of 51 rows, steps 2500 to 5000:
Atoms Temp c_1 c_2 Press
100.654 0.00788582 0.00821157 0.0065899 0.00720972
Loop time of 0.32014 on 4 procs for 5000 steps with 100 atoms

fix             1 tri move rotate 0 0 0 0 0 1 25
run	        5000
Generated 0 of 1 mixed pair_coeff terms from geometric mixing rule
Step        Atoms         Temp           c_1            c_2           Press
5000         100   0.00045281738  0.00047188337  0.00072834743  0.0066020848
Averages over the last 26 of 51 rows, steps 7500 to 10000:
Atoms Temp c_1 c_2 Press
56.0769 0.948201 0.0522611 0.0515608 0.0328321
Loop time of 0.28856 on 4 procs for 5000 steps with 44 atoms

unfix           1
set             type 1 angmom 0.0 0.0 0.0
Setting atom values ...
  40 settings made for angmom
velocity        tri set 0.0 0.0 0.0
run             5000
Generated 0 of 1 mixed pair_coeff terms from geometric mixing rule
Step        Atoms         Temp           c_1            c_2           Press
10000          44   0.042991774    0.047401187    0.054529055    0.005835563
Averages over the last 26 of 51 rows, steps 12500 to 15000:
Atoms Temp c_1 c_2 Press
34.5 0.00673205 0.00764487 0.0145519 0.00304118
Loop time of 0.255191 on 4 procs for 5000 steps with 32 atoms
