LAMMPS (27 Jun 2024)
# pouring spheres into box made of triangles

units		lj
atom_style	tri
atom_modify     map array
boundary        f f f
dimension	3
comm_modify     vel yes

region          box block -7 7 -7 7 0 9 units box
create_box      2 box
Created orthogonal box = (-7 -7 0) to (7 7 9)

molecule        tris surf.tri
Read molecule template tris:
LAMMPS data file for tri plane
  1 molecules
  0 fragments
  0 atoms with max type 0
  0 bonds with max type 0
  0 angles with max type 0
  0 dihedrals with max type 0
  0 impropers with max type 0
  4 triangles
fix             20 all surface/local tris

pair_style	hybrid gran/hooke/history 4000.0 NULL 100.0 NULL 0.5 1                 tri/gran/hooke 4000.0 NULL 100.0 50.0 0.5 1
pair_coeff	1 1 gran/hooke/history
pair_coeff	1 2 tri/gran/hooke
pair_coeff	2 2 none

group           sphere type 1
0 atoms in group sphere
group           tri type 2
4 atoms in group tri

neighbor	0.3 bin
neigh_modify	delay 0 every 1 check yes

#displace_atoms  all rotate 0 0 0 0 0 1 45

fix             2 sphere nve/sphere
fix		3 sphere gravity 1.0 vector 0 0 -1
#fix             4 sphere viscous 0.2

region          slab block -2 2 -2 2 7 9 units box
fix             ins sphere pour 100 1 4767548 vol 0.4 10 	        diam one 1.0 region slab ignore
Particle insertion: 24 every 400 steps, 100 by step 1601

fix             wall sphere wall/gran hooke/history 4000.0 NULL 100.0 NULL 0.5 1                 zcylinder 7.0

timestep	0.005

compute         1 sphere temp
compute_modify  1 dynamic yes

compute         2 sphere temp/sphere
compute_modify  2 dynamic yes

thermo		100
thermo_style	custom step atoms temp c_1 c_2 press
thermo_modify   lost ignore
compute_modify  thermo_temp dynamic yes

dump		2 all image 100 tmp.image.*.ppm type type 		zoom 1.4 adiam 1.0 tri type 2 0.2
dump_modify	2 pad 5

run	        5000
Generated 0 of 1 mixed pair_coeff terms from geometric mixing rule
Step        Atoms         Temp           c_1            c_2           Press
0           4   0              0              0              0
Averages over the last 26 of 51 rows, steps 2500 to 5000:
Atoms Temp c_1 c_2 Press
100.654 0.00787686 0.00820225 0.00657627 0.00701229
Loop time of 0.232999 on 1 procs for 5000 steps with 100 atoms

fix             1 tri move rotate 0 0 0 0 0 1 25
run	        5000
Generated 0 of 1 mixed pair_coeff terms from geometric mixing rule
Step        Atoms         Temp           c_1            c_2           Press
5000         100   0.00049531306  0.00051616835  0.00070658811  0.0061401156
Averages over the last 26 of 51 rows, steps 7500 to 10000:
Atoms Temp c_1 c_2 Press
55.0385 0.967295 0.0599345 0.055066 0.0319419
Loop time of 0.211297 on 1 procs for 5000 steps with 43 atoms

unfix           1
set             type 1 angmom 0.0 0.0 0.0
Setting atom values ...
  39 settings made for angmom
velocity        tri set 0.0 0.0 0.0
run             5000
Generated 0 of 1 mixed pair_coeff terms from geometric mixing rule
Step        Atoms         Temp           c_1            c_2           Press
10000          43   0.041464004    0.045828636    0.049253726    0.002992911
Averages over the last 26 of 51 rows, steps 12500 to 15000:
Atoms Temp c_1 c_2 Press
35.3462 0.0063378 0.00716764 0.0155184 0.00241831
Loop time of 0.172151 on 1 procs for 5000 steps with 32 atoms
