          *****************************************************
          *                                                   *
          *               PWDFT PSPW Calculation              *
          *                                                   *
          *  [ (Grassmann/Stiefel manifold implementation) ]  *
          *  [              C++ implementation             ]  *
          *                                                   *
          *              version #7.00   02/27/21             *
          *                                                   *
          *    This code was developed by Eric J. Bylaska,    *
          *    Abhishek Bagusetty, David H. Bross, ...        *
          *                                                   *
          *****************************************************
          >>> job started at       Fri Feb 24 15:36:02 2023 <<<

 psp_library: /home/sjplimp/nwchem/PWDFT/Nwpw/libraryps



 initializing nwpw_APC object
 ----------------------------
 nga =   3 ngs =     9
 Gc  =   2.50000
 APC gamma: 0 0.60000
 APC gamma: 1 0.90000
 APC gamma: 2 1.35000
 - not self-consistent

 writing formatted psp filename: ./O.vpp

 writing formatted psp filename: ./H.vpp
 generating random psi from scratch
 Warning - Gram-Schmidt being performed on psi2
         - exact norm = 8.00000 norm=8.87321 corrected norm=8.00000 (error=0.87321)

          ==============  summary of input  ==================

 input psi filename: ./nwchemex.movecs

 number of processors used: 2
 processor grid           : 2 x1
 parallel mapping         : 2d-hcurve
 parallel mapping         : balanced

 options:
   boundary conditions  = periodic
   electron spin        = restricted
   exchange-correlation = PBE96 (White and Bird) parameterization

 elements involved in the cluster:
      1: O   valence charge =  6.0  lmax =2
             comment = Parameterized (Chem.Phys.Lett., vol 322, page 447) Hamman psp 
             pseudopotential type            =  0
             highest angular component       =  2
             local potential used            =  2
             number of non-local projections =  4
             cutoff =    0.700   0.700   0.700
      2: H   valence charge =  1.0  lmax =1
             comment = Parameterized (Chem.Phys.Lett., vol 322, page 447) Hamman psp 
             pseudopotential type            =  0
             highest angular component       =  1
             local potential used            =  1
             number of non-local projections =  1
             cutoff =    0.800   0.800

 total charge =   0.000

 atom composition:
   O : 1   H : 2

 initial ion positions (au):
   1 O	(    0.30530   -0.09999    0.06269 ) - atomic mass = 15.995
   2 H	(    1.51755    0.69756   -0.96690 ) - atomic mass =  1.008
   3 H	(   -0.61524   -1.26531   -0.92324 ) - atomic mass =  1.008
   G.C.	(    0.40254   -0.22258   -0.60915 )
 C.O.M.	(    0.32163   -0.12057   -0.05011 )

 real space Electric field:
     Electric Field (au) = (   0.00000    0.00000    0.00000 )
             Center (au) = (   0.00000    0.00000    0.00000 )


 number of electrons: spin up =     4 (   4 per task) down =     4 (   4 per task)

 supercell:
      volume =   17575.98
      lattice:    a1 = <   26.000    0.000    0.000 >
                  a2 = <    0.000   26.000    0.000 >
                  a3 = <    0.000    0.000   26.000 >
      reciprocal: b1 = <    0.242    0.000    0.000 >
                  b2 = <    0.000    0.242    0.000 >
                  b3 = <    0.000    0.000    0.242 >
      lattice:    a =      26.000 b =     26.000 c =      26.000
                  alpha =  90.000 beta =  90.000 gamma =  90.000
      density cutoff = 20.000 fft =  54 x   54 x   54  (   37447 waves    18724 per task)
      wavefnc cutoff = 10.000 fft =  54 x   54 x   54  (   13373 waves     6687 per task)

 Ewald parameters:
      energy cutoff =  20.000 fft =  54 x   54 x   54  (   37447 waves    18724 per task)
      Ewald summation: cut radius =   8.276 and   1
                       Mandelung Wigner-Seitz =  1.76011888 (alpha =  2.83729748 rs = 16.12910517)

 technical parameters:
      fixed step: time step =        5.80  ficticious mass =   400000.00
      tolerance =   1.000e-09 (energy)    1.000e+00 (density)    1.000e-04 (ion)
      max iterations =       1000 (   10 inner   100 outer)
      minimizer = Grassmann conjugate gradient



     ============ Grassmann conjugate gradient iteration ============
          >>> iteration started at Fri Feb 24 15:36:02 2023  <<<
     iter.                 Energy          DeltaE        DeltaRho
     ----------------------------------------------------------------
        - 15 steepest descent iterations performed
        10       7.089050560355e+00   -3.582537e+00    6.691960e-04
        20      -1.361280767460e+01   -6.011694e-01    7.883683e-03
        30      -1.520563524147e+01   -6.939811e-02    8.410800e-04
        40      -1.621678465147e+01   -2.325456e-02    3.928303e-04
        50      -1.630501568133e+01   -6.649672e-04    3.407175e-05
        60      -1.630527117024e+01   -6.605818e-07    7.042042e-09
        70      -1.630527201766e+01   -3.772506e-09    2.820925e-11
        80      -1.630527202296e+01   -9.484040e-10    1.063105e-11
     *** tolerance ok. iteration terminated
          >>> iteration ended at   Fri Feb 24 15:36:11 2023  <<<

     ==============  energy results (Molecule object)  ==============


 number of electrons: spin up=     4.00000  down=     4.00000 (real space)


 total     energy    :   -1.6305272023e+01 (   -5.43509e+00 /ion)
 total orbital energy:   -4.4097516270e+00 (   -1.10244e+00 /electron)
 hartree energy      :    1.6681840243e+01 (    4.17046e+00 /electron)
 exc-corr energy     :   -4.0100831603e+00 (   -1.00252e+00 /electron)
 ion-ion energy      :    3.5966388474e+00 (    1.19888e+00 /ion)

 kinetic (planewave) :    9.8614765175e+00 (    2.46537e+00 /electron)
 V_local (planewave) :   -4.2645329892e+01 (   -1.06613e+01 /electron)
 V_nl    (planewave) :    2.1018542134e-01 (    5.25464e-02 /electron)
 V_Coul  (planewave) :    3.3363680486e+01 (    8.34092e+00 /electron)
 V_xc    (planewave) :   -5.1997641601e+00 (   -1.29994e+00 /electron)
 Viral Coefficient   :   -1.4471695105e+00

 orbital energy:
    -2.5264288e-01 (  -6.875eV)
    -3.5265246e-01 (  -9.596eV)
    -5.0406233e-01 ( -13.716eV)
    -1.0955181e+00 ( -29.811eV)

== Center of Charge ==

spin up    = (    0.3337    -0.1357    -0.1342 )
spin down  = (    0.3337    -0.1357    -0.1342 )
     total = (    0.3337    -0.1357    -0.1342 )
ionic      = (    0.3418    -0.1460    -0.1893 )

== Molecular Dipole wrt Center of Mass ==

mu   = (    0.0649    -0.0820    -0.4407 ) au
|mu| =      0.4529 au (     1.1511 Debye )


*************************************************************
**                                                         **
**          PSPW Atomic Point Charge (APC) Analysis        **
**                                                         **
**   Point charge analysis based on paper by P.E. Blochl   **
**         (J. Chem. Phys. vol 103, page 7422, 1995)       **
**                                                         **
*************************************************************

 nwpw_APC object
 ---------------
 nga =   3 ngs =     9
 Gc  =   2.50000
 APC gamma: 0 0.60000
 APC gamma: 1 0.90000
 APC gamma: 2 1.35000
 - not self-consistent


 charge analysis on each atom
 ----------------------------

      no  atom        Qelc        Qion      Qtotal
   -----  ----     -------     -------     -------
       1    O       -6.416       6.000      -0.416
       2    H       -0.792       1.000       0.208
       3    H       -0.792       1.000       0.208
       Total Q      -8.000       8.000      -0.000


 Gaussian coefficients of model density
 --------------------------------------

      no  atom     g=0.000     g=0.600     g=0.900     g=1.350
   -----  ----     -------     -------     -------     -------
       1     O       6.000      -0.083      -2.968      -3.365
       2     H       1.000      -0.973       1.287      -1.106
       3     H       1.000      -0.969       1.282      -1.104


 output psi to filename: ./nwchemex.movecs

 -----------------
 cputime in seconds
 prologue    : 1.132e-01
 main loop   : 9.352e+00
 epilogue    : 8.307e-03
 total       : 9.473e+00
 cputime/step: 2.913e-02 ( 321 evaluations, 74 linesearches)

 Time spent doing      total        step             percent
 total time            9.443260e+00 2.941826e-02     100.00%
 total FFT time        2.670474e+00 8.319235e-03      28.28%
 lagrange multipliers  6.575587e-03 2.048469e-05       0.07%
 local potentials      4.501420e-04 1.402312e-06       0.00%
 non-local potentials  2.709856e-01 8.441918e-04       2.87%
 ffm_dgemm             4.360340e-02 1.358361e-04       0.46%
 fmf_dgemm             8.802816e-02 2.742310e-04       0.93%
 m_diagonalize         5.288340e-04 1.647458e-06       0.01%
 mmm_multiply          7.064400e-05 2.200748e-07       0.00%
 SCVtrans              2.730270e-04 8.505514e-07       0.00%

 >>> job completed at     Fri Feb 24 15:36:11 2023 <<<
          *****************************************************
          *                                                   *
          *               PWDFT PSPW Calculation              *
          *                                                   *
          *  [ (Grassmann/Stiefel manifold implementation) ]  *
          *  [              C++ implementation             ]  *
          *                                                   *
          *              version #7.00   02/27/21             *
          *                                                   *
          *    This code was developed by Eric J. Bylaska,    *
          *    Abhishek Bagusetty, David H. Bross, ...        *
          *                                                   *
          *****************************************************
          >>> job started at       Fri Feb 24 15:36:11 2023 <<<

 psp_library: /home/sjplimp/nwchem/PWDFT/Nwpw/libraryps



 initializing nwpw_APC object
 ----------------------------
 nga =   3 ngs =     9
 Gc  =   2.50000
 APC gamma: 0 0.60000
 APC gamma: 1 0.90000
 APC gamma: 2 1.35000
 - not self-consistent

 writing formatted psp filename: ./O.vpp

 writing formatted psp filename: ./H.vpp
 psi grids are being converted: 
 -----------------------------: 
 converting .... psi:1 spin:1
 converting .... psi:2 spin:1
 converting .... psi:3 spin:1
 converting .... psi:4 spin:1

 input psi exists, reading from file: ./nwchemex.movecs

          ==============  summary of input  ==================

 input psi filename: ./nwchemex.movecs

 number of processors used: 2
 processor grid           : 2 x1
 parallel mapping         : 2d-hcurve
 parallel mapping         : balanced

 options:
   boundary conditions  = periodic
   electron spin        = restricted
   exchange-correlation = PBE96 (White and Bird) parameterization

 elements involved in the cluster:
      1: O   valence charge =  6.0  lmax =2
             comment = Parameterized (Chem.Phys.Lett., vol 322, page 447) Hamman psp 
             pseudopotential type            =  0
             highest angular component       =  2
             local potential used            =  2
             number of non-local projections =  4
             cutoff =    0.700   0.700   0.700
      2: H   valence charge =  1.0  lmax =1
             comment = Parameterized (Chem.Phys.Lett., vol 322, page 447) Hamman psp 
             pseudopotential type            =  0
             highest angular component       =  1
             local potential used            =  1
             number of non-local projections =  1
             cutoff =    0.800   0.800

 total charge =   0.000

 atom composition:
   O : 1   H : 2

 initial ion positions (au):
   1 O	(    0.30530   -0.09999    0.06269 ) - atomic mass = 15.995
   2 H	(    1.51755    0.69756   -0.96690 ) - atomic mass =  1.008
   3 H	(   -0.61524   -1.26531   -0.92324 ) - atomic mass =  1.008
   G.C.	(    0.40254   -0.22258   -0.60915 )
 C.O.M.	(    0.32163   -0.12057   -0.05011 )

 real space Electric field:
     Electric Field (au) = (   0.00000    0.00000    0.00000 )
             Center (au) = (   0.00000    0.00000    0.00000 )


 number of electrons: spin up =     4 (   4 per task) down =     4 (   4 per task)

 supercell:
      volume =   17575.98
      lattice:    a1 = <   26.000    0.000    0.000 >
                  a2 = <    0.000   26.000    0.000 >
                  a3 = <    0.000    0.000   26.000 >
      reciprocal: b1 = <    0.242    0.000    0.000 >
                  b2 = <    0.000    0.242    0.000 >
                  b3 = <    0.000    0.000    0.242 >
      lattice:    a =      26.000 b =     26.000 c =      26.000
                  alpha =  90.000 beta =  90.000 gamma =  90.000
      density cutoff = 40.000 fft =  80 x   80 x   80  (  106048 waves    53024 per task)
      wavefnc cutoff = 20.000 fft =  80 x   80 x   80  (   37447 waves    18724 per task)

 Ewald parameters:
      energy cutoff =  40.000 fft =  80 x   80 x   80  (  106048 waves    53024 per task)
      Ewald summation: cut radius =   8.276 and   1
                       Mandelung Wigner-Seitz =  1.76011888 (alpha =  2.83729748 rs = 16.12910517)

 technical parameters:
      fixed step: time step =        5.80  ficticious mass =   400000.00
      tolerance =   1.000e-09 (energy)    1.000e+00 (density)    1.000e-04 (ion)
      max iterations =       1000 (   10 inner   100 outer)
      minimizer = Grassmann conjugate gradient



     ============ Grassmann conjugate gradient iteration ============
          >>> iteration started at Fri Feb 24 15:36:12 2023  <<<
     iter.                 Energy          DeltaE        DeltaRho
     ----------------------------------------------------------------
        - 15 steepest descent iterations performed
        10      -1.709552616063e+01   -9.067013e-04    1.096191e-05
        20      -1.709727426392e+01   -1.254198e-05    1.221740e-07
        30      -1.709728930760e+01   -1.755586e-07    2.870571e-09
        40      -1.709728957060e+01   -2.322675e-09    1.887065e-11
        50      -1.709728957412e+01   -8.859047e-10    2.923518e-12
     *** tolerance ok. iteration terminated
          >>> iteration ended at   Fri Feb 24 15:36:27 2023  <<<

     ==============  energy results (Molecule object)  ==============


 number of electrons: spin up=     4.00000  down=     4.00000 (real space)


 total     energy    :   -1.7097289574e+01 (   -5.69910e+00 /ion)
 total orbital energy:   -4.0997000514e+00 (   -1.02493e+00 /electron)
 hartree energy      :    1.7847982432e+01 (    4.46200e+00 /electron)
 exc-corr energy     :   -4.2204935359e+00 (   -1.05512e+00 /electron)
 ion-ion energy      :    3.5966388474e+00 (    1.19888e+00 /ion)

 kinetic (planewave) :    1.2079267853e+01 (    3.01982e+00 /electron)
 V_local (planewave) :   -4.5359049925e+01 (   -1.13398e+01 /electron)
 V_nl    (planewave) :   -1.0416352451e+00 (   -2.60409e-01 /electron)
 V_Coul  (planewave) :    3.5695964864e+01 (    8.92399e+00 /electron)
 V_xc    (planewave) :   -5.4742475975e+00 (   -1.36856e+00 /electron)
 Viral Coefficient   :   -1.3393997137e+00

 orbital energy:
    -2.6700325e-01 (  -7.266eV)
    -3.3720556e-01 (  -9.176eV)
    -5.0189188e-01 ( -13.657eV)
    -9.4374933e-01 ( -25.681eV)

== Center of Charge ==

spin up    = (    0.3298    -0.1310    -0.1068 )
spin down  = (    0.3298    -0.1310    -0.1068 )
     total = (    0.3298    -0.1310    -0.1068 )
ionic      = (    0.3418    -0.1460    -0.1893 )

== Molecular Dipole wrt Center of Mass ==

mu   = (    0.0958    -0.1200    -0.6599 ) au
|mu| =      0.6776 au (     1.7221 Debye )


*************************************************************
**                                                         **
**          PSPW Atomic Point Charge (APC) Analysis        **
**                                                         **
**   Point charge analysis based on paper by P.E. Blochl   **
**         (J. Chem. Phys. vol 103, page 7422, 1995)       **
**                                                         **
*************************************************************

 nwpw_APC object
 ---------------
 nga =   3 ngs =     9
 Gc  =   2.50000
 APC gamma: 0 0.60000
 APC gamma: 1 0.90000
 APC gamma: 2 1.35000
 - not self-consistent


 charge analysis on each atom
 ----------------------------

      no  atom        Qelc        Qion      Qtotal
   -----  ----     -------     -------     -------
       1    O       -6.631       6.000      -0.631
       2    H       -0.684       1.000       0.316
       3    H       -0.685       1.000       0.315
       Total Q      -8.000       8.000       0.000


 Gaussian coefficients of model density
 --------------------------------------

      no  atom     g=0.000     g=0.600     g=0.900     g=1.350
   -----  ----     -------     -------     -------     -------
       1     O       6.000      -0.775      -2.618      -3.238
       2     H       1.000      -0.768       0.898      -0.814
       3     H       1.000      -0.766       0.895      -0.814


 output psi to filename: ./nwchemex.movecs

 -----------------
 cputime in seconds
 prologue    : 1.760e-01
 main loop   : 1.544e+01
 epilogue    : 2.727e-02
 total       : 1.564e+01
 cputime/step: 1.009e-01 ( 153 evaluations, 43 linesearches)

 Time spent doing      total        step             percent
 total time            2.512266e+01 1.642004e-01     100.00%
 total FFT time        7.228765e+00 4.724683e-02      28.77%
 lagrange multipliers  1.332931e-02 8.711969e-05       0.05%
 local potentials      2.540088e-03 1.660188e-05       0.01%
 non-local potentials  6.403892e-01 4.185550e-03       2.55%
 ffm_dgemm             1.154356e-01 7.544813e-04       0.46%
 fmf_dgemm             2.257187e-01 1.475285e-03       0.90%
 m_diagonalize         8.679170e-04 5.672660e-06       0.00%
 mmm_multiply          1.086730e-04 7.102810e-07       0.00%
 SCVtrans              4.051150e-04 2.647810e-06       0.00%

 >>> job completed at     Fri Feb 24 15:36:27 2023 <<<
          *****************************************************
          *                                                   *
          *               PWDFT PSPW Calculation              *
          *                                                   *
          *  [ (Grassmann/Stiefel manifold implementation) ]  *
          *  [              C++ implementation             ]  *
          *                                                   *
          *              version #7.00   02/27/21             *
          *                                                   *
          *    This code was developed by Eric J. Bylaska,    *
          *    Abhishek Bagusetty, David H. Bross, ...        *
          *                                                   *
          *****************************************************
          >>> job started at       Fri Feb 24 15:36:27 2023 <<<

 psp_library: /home/sjplimp/nwchem/PWDFT/Nwpw/libraryps



 initializing nwpw_APC object
 ----------------------------
 nga =   3 ngs =     9
 Gc  =   2.50000
 APC gamma: 0 0.60000
 APC gamma: 1 0.90000
 APC gamma: 2 1.35000
 APC u:        1         0.03217
 APC u:        2         0.01847
 APC u:        3         0.01917
 - self-consistent

 writing formatted psp filename: ./O.vpp

 writing formatted psp filename: ./H.vpp
 psi grids are being converted: 
 -----------------------------: 
 converting .... psi:1 spin:1
 converting .... psi:2 spin:1
 converting .... psi:3 spin:1
 converting .... psi:4 spin:1

 input psi exists, reading from file: ./nwchemex.movecs

          ==============  summary of input  ==================

 input psi filename: ./nwchemex.movecs

 number of processors used: 2
 processor grid           : 2 x1
 parallel mapping         : 2d-hcurve
 parallel mapping         : balanced

 options:
   boundary conditions  = periodic
   electron spin        = restricted
   exchange-correlation = PBE96 (White and Bird) parameterization

 elements involved in the cluster:
      1: O   valence charge =  6.0  lmax =2
             comment = Parameterized (Chem.Phys.Lett., vol 322, page 447) Hamman psp 
             pseudopotential type            =  0
             highest angular component       =  2
             local potential used            =  2
             number of non-local projections =  4
             cutoff =    0.700   0.700   0.700
      2: H   valence charge =  1.0  lmax =1
             comment = Parameterized (Chem.Phys.Lett., vol 322, page 447) Hamman psp 
             pseudopotential type            =  0
             highest angular component       =  1
             local potential used            =  1
             number of non-local projections =  1
             cutoff =    0.800   0.800

 total charge =   0.000

 atom composition:
   O : 1   H : 2

 initial ion positions (au):
   1 O	(    0.30530   -0.09999    0.06269 ) - atomic mass = 15.995
   2 H	(    1.51755    0.69756   -0.96690 ) - atomic mass =  1.008
   3 H	(   -0.61524   -1.26531   -0.92324 ) - atomic mass =  1.008
   G.C.	(    0.40254   -0.22258   -0.60915 )
 C.O.M.	(    0.32163   -0.12057   -0.05011 )

 real space Electric field:
     Electric Field (au) = (   0.00000    0.00000    0.00000 )
             Center (au) = (   0.00000    0.00000    0.00000 )


 number of electrons: spin up =     4 (   4 per task) down =     4 (   4 per task)

 supercell:
      volume =   17575.98
      lattice:    a1 = <   26.000    0.000    0.000 >
                  a2 = <    0.000   26.000    0.000 >
                  a3 = <    0.000    0.000   26.000 >
      reciprocal: b1 = <    0.242    0.000    0.000 >
                  b2 = <    0.000    0.242    0.000 >
                  b3 = <    0.000    0.000    0.242 >
      lattice:    a =      26.000 b =     26.000 c =      26.000
                  alpha =  90.000 beta =  90.000 gamma =  90.000
      density cutoff = 60.000 fft =  96 x   96 x   96  (  195216 waves    97608 per task)
      wavefnc cutoff = 30.000 fft =  96 x   96 x   96  (   69013 waves    34507 per task)

 Ewald parameters:
      energy cutoff =  60.000 fft =  96 x   96 x   96  (  195216 waves    97608 per task)
      Ewald summation: cut radius =   8.276 and   1
                       Mandelung Wigner-Seitz =  1.76011888 (alpha =  2.83729748 rs = 16.12910517)

 technical parameters:
      fixed step: time step =        5.80  ficticious mass =   400000.00
      tolerance =   1.000e-09 (energy)    1.000e+00 (density)    1.000e-04 (ion)
      max iterations =       1000 (   10 inner   100 outer)
      minimizer = Grassmann conjugate gradient



     ============ Grassmann conjugate gradient iteration ============
          >>> iteration started at Fri Feb 24 15:36:27 2023  <<<
     iter.                 Energy          DeltaE        DeltaRho
     ----------------------------------------------------------------
        - 15 steepest descent iterations performed
        10      -1.719850750633e+01   -7.489611e-05    1.916852e-06
        20      -1.719866545102e+01   -1.621993e-06    1.219779e-08
        30      -1.719867005773e+01   -6.392208e-08    5.380553e-10
        40      -1.719867026700e+01   -2.808584e-09    2.902516e-11
        50      -1.719867027685e+01   -8.939232e-10    2.123599e-11
     *** tolerance ok. iteration terminated
          >>> iteration ended at   Fri Feb 24 15:37:01 2023  <<<

     ==============  energy results (Molecule object)  ==============


 number of electrons: spin up=     4.00000  down=     4.00000 (real space)


 APC Potential:
   0.032168321   0.018471985   0.019170642

 APC Point Charges:
  -0.742594440   0.372215881   0.370378559


 total     energy    :   -1.7198670277e+01 (   -5.73289e+00 /ion)
 total orbital energy:   -4.1185951135e+00 (   -1.02965e+00 /electron)
 hartree energy      :    1.8012769185e+01 (    4.50319e+00 /electron)
 exc-corr energy     :   -4.2447746588e+00 (   -1.06119e+00 /electron)
 APC energy          :   -9.9120557142e-03 (   -3.30402e-03 /ion)
 ion-ion energy      :    3.5966383352e+00 (    1.19888e+00 /ion)

 kinetic (planewave) :    1.2411625022e+01 (    3.10291e+00 /electron)
 V_local (planewave) :   -4.5793489955e+01 (   -1.14484e+01 /electron)
 V_nl    (planewave) :   -1.2574896151e+00 (   -3.14372e-01 /electron)
 V_Coul  (planewave) :    3.6025538370e+01 (    9.00638e+00 /electron)
 V_xc    (planewave) :   -5.5047789350e+00 (   -1.37619e+00 /electron)
 K.S. V_APC energy   :   -8.5963465929e-02 (   -2.86545e-02 /ion)
 Viral Coefficient   :   -1.3318336726e+00

 orbital energy:
    -2.7467714e-01 (  -7.474eV)
    -3.4392777e-01 (  -9.359eV)
    -5.0664594e-01 ( -13.787eV)
    -9.3404671e-01 ( -25.417eV)

== Center of Charge ==

spin up    = (    0.3274    -0.1283    -0.0913 )
spin down  = (    0.3274    -0.1283    -0.0913 )
     total = (    0.3274    -0.1283    -0.0913 )
ionic      = (    0.3418    -0.1460    -0.1893 )

== Molecular Dipole wrt Center of Mass ==

mu   = (    0.1153    -0.1410    -0.7838 ) au
|mu| =      0.8046 au (     2.0451 Debye )


 Ion Forces (au):
   1 O	(    0.00014   -0.00159    0.00561 )
   2 H	(   -0.00082   -0.00158   -0.00230 )
   3 H	(    0.00231    0.00170   -0.00152 )



*************************************************************
**                                                         **
**          PSPW Atomic Point Charge (APC) Analysis        **
**                                                         **
**   Point charge analysis based on paper by P.E. Blochl   **
**         (J. Chem. Phys. vol 103, page 7422, 1995)       **
**                                                         **
*************************************************************

 nwpw_APC object
 ---------------
 nga =   3 ngs =     9
 Gc  =   2.50000
 APC gamma: 0 0.60000
 APC gamma: 1 0.90000
 APC gamma: 2 1.35000
 - self-consistent

 APC Potential:
   0.032168321   0.018471985   0.019170642

 APC Point Charges:
  -0.742594440   0.372215881   0.370378559


 charge analysis on each atom
 ----------------------------

      no  atom        Qelc        Qion      Qtotal
   -----  ----     -------     -------     -------
       1    O       -6.743       6.000      -0.743
       2    H       -0.628       1.000       0.372
       3    H       -0.630       1.000       0.370
       Total Q      -8.000       8.000      -0.000


 Gaussian coefficients of model density
 --------------------------------------

      no  atom     g=0.000     g=0.600     g=0.900     g=1.350
   -----  ----     -------     -------     -------     -------
       1     O       6.000      -1.097      -2.076      -3.569
       2     H       1.000      -0.718       0.776      -0.685
       3     H       1.000      -0.718       0.778      -0.690


 output psi to filename: ./nwchemex.movecs

 -----------------
 cputime in seconds
 prologue    : 2.886e-01
 main loop   : 3.407e+01
 epilogue    : 7.946e-02
 total       : 3.443e+01
 cputime/step: 2.143e-01 ( 159 evaluations, 46 linesearches)

 Time spent doing      total        step             percent
 total time            5.961894e+01 3.749619e-01     100.00%
 total FFT time        1.705569e+01 1.072685e-01      28.61%
 lagrange multipliers  2.770001e-02 1.742139e-04       0.05%
 local potentials      2.728062e-01 1.715762e-03       0.46%
 non-local potentials  1.365814e+00 8.590024e-03       2.29%
 ffm_dgemm             2.722403e-01 1.712203e-03       0.46%
 fmf_dgemm             5.543930e-01 3.486748e-03       0.93%
 m_diagonalize         1.230453e-03 7.738698e-06       0.00%
 mmm_multiply          1.692010e-04 1.064157e-06       0.00%
 SCVtrans              5.798710e-04 3.646987e-06       0.00%

 >>> job completed at     Fri Feb 24 15:37:02 2023 <<<
          *****************************************************
          *                                                   *
          *               PWDFT PSPW Calculation              *
          *                                                   *
          *  [ (Grassmann/Stiefel manifold implementation) ]  *
          *  [              C++ implementation             ]  *
          *                                                   *
          *              version #7.00   02/27/21             *
          *                                                   *
          *    This code was developed by Eric J. Bylaska,    *
          *    Abhishek Bagusetty, David H. Bross, ...        *
          *                                                   *
          *****************************************************
          >>> job started at       Fri Feb 24 15:37:02 2023 <<<

 psp_library: /home/sjplimp/nwchem/PWDFT/Nwpw/libraryps



 initializing nwpw_APC object
 ----------------------------
 nga =   3 ngs =     9
 Gc  =   2.50000
 APC gamma: 0 0.60000
 APC gamma: 1 0.90000
 APC gamma: 2 1.35000
 APC u:        1         0.03222
 APC u:        2         0.01845
 APC u:        3         0.01924
 - self-consistent

 reading formatted psp filename: ./O.vpp

 reading formatted psp filename: ./H.vpp
 input psi exists, reading from file: ./nwchemex.movecs

          ==============  summary of input  ==================

 input psi filename: ./nwchemex.movecs

 number of processors used: 2
 processor grid           : 2 x1
 parallel mapping         : 2d-hcurve
 parallel mapping         : balanced

 options:
   boundary conditions  = periodic
   electron spin        = restricted
   exchange-correlation = PBE96 (White and Bird) parameterization

 elements involved in the cluster:
      1: O   valence charge =  6.0  lmax =2
             comment = Parameterized (Chem.Phys.Lett., vol 322, page 447) Hamman psp 
             pseudopotential type            =  0
             highest angular component       =  2
             local potential used            =  2
             number of non-local projections =  4
             cutoff =    0.700   0.700   0.700
      2: H   valence charge =  1.0  lmax =1
             comment = Parameterized (Chem.Phys.Lett., vol 322, page 447) Hamman psp 
             pseudopotential type            =  0
             highest angular component       =  1
             local potential used            =  1
             number of non-local projections =  1
             cutoff =    0.800   0.800

 total charge =   0.000

 atom composition:
   O : 1   H : 2

 initial ion positions (au):
   1 O	(    0.30503   -0.09919    0.06234 ) - atomic mass = 15.995
   2 H	(    1.52203    0.69367   -0.97143 ) - atomic mass =  1.008
   3 H	(   -0.61843   -1.26564   -0.91994 ) - atomic mass =  1.008
   G.C.	(    0.40288   -0.22372   -0.60968 )
 C.O.M.	(    0.32146   -0.12010   -0.05049 )

 real space Electric field:
     Electric Field (au) = (   0.00000    0.00000    0.00000 )
             Center (au) = (   0.00000    0.00000    0.00000 )


 number of electrons: spin up =     4 (   4 per task) down =     4 (   4 per task)

 supercell:
      volume =   17575.98
      lattice:    a1 = <   26.000    0.000    0.000 >
                  a2 = <    0.000   26.000    0.000 >
                  a3 = <    0.000    0.000   26.000 >
      reciprocal: b1 = <    0.242    0.000    0.000 >
                  b2 = <    0.000    0.242    0.000 >
                  b3 = <    0.000    0.000    0.242 >
      lattice:    a =      26.000 b =     26.000 c =      26.000
                  alpha =  90.000 beta =  90.000 gamma =  90.000
      density cutoff = 60.000 fft =  96 x   96 x   96  (  195216 waves    97608 per task)
      wavefnc cutoff = 30.000 fft =  96 x   96 x   96  (   69013 waves    34507 per task)

 Ewald parameters:
      energy cutoff =  60.000 fft =  96 x   96 x   96  (  195216 waves    97608 per task)
      Ewald summation: cut radius =   8.276 and   1
                       Mandelung Wigner-Seitz =  1.76011888 (alpha =  2.83729748 rs = 16.12910517)

 technical parameters:
      fixed step: time step =        5.80  ficticious mass =   400000.00
      tolerance =   1.000e-09 (energy)    1.000e+00 (density)    1.000e-04 (ion)
      max iterations =       1000 (   10 inner   100 outer)
      minimizer = Grassmann conjugate gradient



     ============ Grassmann conjugate gradient iteration ============
          >>> iteration started at Fri Feb 24 15:37:02 2023  <<<
     iter.                 Energy          DeltaE        DeltaRho
     ----------------------------------------------------------------
        10      -1.719868650088e+01   -1.191269e-07    1.696551e-09
        20      -1.719868671143e+01   -2.961354e-09    1.370154e-10
        30      -1.719868671344e+01   -8.142145e-10    3.386329e-11
     *** tolerance ok. iteration terminated
          >>> iteration ended at   Fri Feb 24 15:37:17 2023  <<<

     ==============  energy results (Molecule object)  ==============


 number of electrons: spin up=     4.00000  down=     4.00000 (real space)


 APC Potential:
   0.032223202   0.018452127   0.019238906

 APC Point Charges:
  -0.742375948   0.372052525   0.370323423


 total     energy    :   -1.7198686713e+01 (   -5.73290e+00 /ion)
 total orbital energy:   -4.1166502420e+00 (   -1.02916e+00 /electron)
 hartree energy      :    1.8007018520e+01 (    4.50175e+00 /electron)
 exc-corr energy     :   -4.2437902939e+00 (   -1.06095e+00 /electron)
 APC energy          :   -9.9319522413e-03 (   -3.31065e-03 /ion)
 ion-ion energy      :    3.5890677516e+00 (    1.19636e+00 /ion)

 kinetic (planewave) :    1.2407479151e+01 (    3.10187e+00 /electron)
 V_local (planewave) :   -4.5778699896e+01 (   -1.14447e+01 /electron)
 V_nl    (planewave) :   -1.2559710660e+00 (   -3.13993e-01 /electron)
 V_Coul  (planewave) :    3.6014037040e+01 (    9.00351e+00 /electron)
 V_xc    (planewave) :   -5.5034954705e+00 (   -1.37587e+00 /electron)
 K.S. V_APC energy   :   -8.6141072782e-02 (   -2.87137e-02 /ion)
 Viral Coefficient   :   -1.3317878025e+00

 orbital energy:
    -2.7460160e-01 (  -7.472eV)
    -3.4383640e-01 (  -9.356eV)
    -5.0628238e-01 ( -13.777eV)
    -9.3360474e-01 ( -25.405eV)

== Center of Charge ==

spin up    = (    0.3272    -0.1280    -0.0917 )
spin down  = (    0.3272    -0.1280    -0.0917 )
     total = (    0.3272    -0.1280    -0.0917 )
ionic      = (    0.3417    -0.1459    -0.1897 )

== Molecular Dipole wrt Center of Mass ==

mu   = (    0.1158    -0.1433    -0.7837 ) au
|mu| =      0.8051 au (     2.0461 Debye )


 Ion Forces (au):
   1 O	(    0.00121   -0.00087    0.00470 )
   2 H	(   -0.00200   -0.00237   -0.00137 )
   3 H	(    0.00241    0.00177   -0.00154 )



*************************************************************
**                                                         **
**          PSPW Atomic Point Charge (APC) Analysis        **
**                                                         **
**   Point charge analysis based on paper by P.E. Blochl   **
**         (J. Chem. Phys. vol 103, page 7422, 1995)       **
**                                                         **
*************************************************************

 nwpw_APC object
 ---------------
 nga =   3 ngs =     9
 Gc  =   2.50000
 APC gamma: 0 0.60000
 APC gamma: 1 0.90000
 APC gamma: 2 1.35000
 - self-consistent

 APC Potential:
   0.032223202   0.018452127   0.019238906

 APC Point Charges:
  -0.742375948   0.372052525   0.370323423


 charge analysis on each atom
 ----------------------------

      no  atom        Qelc        Qion      Qtotal
   -----  ----     -------     -------     -------
       1    O       -6.742       6.000      -0.742
       2    H       -0.628       1.000       0.372
       3    H       -0.630       1.000       0.370
       Total Q      -8.000       8.000       0.000


 Gaussian coefficients of model density
 --------------------------------------

      no  atom     g=0.000     g=0.600     g=0.900     g=1.350
   -----  ----     -------     -------     -------     -------
       1     O       6.000      -1.096      -2.076      -3.570
       2     H       1.000      -0.717       0.776      -0.686
       3     H       1.000      -0.719       0.780      -0.690


 output psi to filename: ./nwchemex.movecs

 -----------------
 cputime in seconds
 prologue    : 1.864e-01
 main loop   : 1.491e+01
 epilogue    : 7.967e-02
 total       : 1.518e+01
 cputime/step: 2.131e-01 ( 70 evaluations, 22 linesearches)

 Time spent doing      total        step             percent
 total time            7.483701e+01 1.069100e+00     100.00%
 total FFT time        2.134523e+01 3.049319e-01      28.52%
 lagrange multipliers  2.770001e-02 3.957144e-04       0.04%
 local potentials      3.948498e-01 5.640711e-03       0.53%
 non-local potentials  1.688850e+00 2.412643e-02       2.26%
 ffm_dgemm             3.442074e-01 4.917248e-03       0.46%
 fmf_dgemm             7.092531e-01 1.013219e-02       0.95%
 m_diagonalize         1.408884e-03 2.012691e-05       0.00%
 mmm_multiply          1.976730e-04 2.823900e-06       0.00%
 SCVtrans              6.549420e-04 9.356314e-06       0.00%

 >>> job completed at     Fri Feb 24 15:37:17 2023 <<<
          *****************************************************
          *                                                   *
          *               PWDFT PSPW Calculation              *
          *                                                   *
          *  [ (Grassmann/Stiefel manifold implementation) ]  *
          *  [              C++ implementation             ]  *
          *                                                   *
          *              version #7.00   02/27/21             *
          *                                                   *
          *    This code was developed by Eric J. Bylaska,    *
          *    Abhishek Bagusetty, David H. Bross, ...        *
          *                                                   *
          *****************************************************
          >>> job started at       Fri Feb 24 15:37:17 2023 <<<

 psp_library: /home/sjplimp/nwchem/PWDFT/Nwpw/libraryps



 initializing nwpw_APC object
 ----------------------------
 nga =   3 ngs =     9
 Gc  =   2.50000
 APC gamma: 0 0.60000
 APC gamma: 1 0.90000
 APC gamma: 2 1.35000
 APC u:        1         0.03229
 APC u:        2         0.01844
 APC u:        3         0.01931
 - self-consistent

 reading formatted psp filename: ./O.vpp

 reading formatted psp filename: ./H.vpp
 input psi exists, reading from file: ./nwchemex.movecs

          ==============  summary of input  ==================

 input psi filename: ./nwchemex.movecs

 number of processors used: 2
 processor grid           : 2 x1
 parallel mapping         : 2d-hcurve
 parallel mapping         : balanced

 options:
   boundary conditions  = periodic
   electron spin        = restricted
   exchange-correlation = PBE96 (White and Bird) parameterization

 elements involved in the cluster:
      1: O   valence charge =  6.0  lmax =2
             comment = Parameterized (Chem.Phys.Lett., vol 322, page 447) Hamman psp 
             pseudopotential type            =  0
             highest angular component       =  2
             local potential used            =  2
             number of non-local projections =  4
             cutoff =    0.700   0.700   0.700
      2: H   valence charge =  1.0  lmax =1
             comment = Parameterized (Chem.Phys.Lett., vol 322, page 447) Hamman psp 
             pseudopotential type            =  0
             highest angular component       =  1
             local potential used            =  1
             number of non-local projections =  1
             cutoff =    0.800   0.800

 total charge =   0.000

 atom composition:
   O : 1   H : 2

 initial ion positions (au):
   1 O	(    0.30476   -0.09839    0.06200 ) - atomic mass = 15.995
   2 H	(    1.52650    0.68976   -0.97599 ) - atomic mass =  1.008
   3 H	(   -0.62160   -1.26596   -0.91667 ) - atomic mass =  1.008
   G.C.	(    0.40322   -0.22486   -0.61022 )
 C.O.M.	(    0.32130   -0.11963   -0.05087 )

 real space Electric field:
     Electric Field (au) = (   0.00000    0.00000    0.00000 )
             Center (au) = (   0.00000    0.00000    0.00000 )


 number of electrons: spin up =     4 (   4 per task) down =     4 (   4 per task)

 supercell:
      volume =   17575.98
      lattice:    a1 = <   26.000    0.000    0.000 >
                  a2 = <    0.000   26.000    0.000 >
                  a3 = <    0.000    0.000   26.000 >
      reciprocal: b1 = <    0.242    0.000    0.000 >
                  b2 = <    0.000    0.242    0.000 >
                  b3 = <    0.000    0.000    0.242 >
      lattice:    a =      26.000 b =     26.000 c =      26.000
                  alpha =  90.000 beta =  90.000 gamma =  90.000
      density cutoff = 60.000 fft =  96 x   96 x   96  (  195216 waves    97608 per task)
      wavefnc cutoff = 30.000 fft =  96 x   96 x   96  (   69013 waves    34507 per task)

 Ewald parameters:
      energy cutoff =  60.000 fft =  96 x   96 x   96  (  195216 waves    97608 per task)
      Ewald summation: cut radius =   8.276 and   1
                       Mandelung Wigner-Seitz =  1.76011888 (alpha =  2.83729748 rs = 16.12910517)

 technical parameters:
      fixed step: time step =        5.80  ficticious mass =   400000.00
      tolerance =   1.000e-09 (energy)    1.000e+00 (density)    1.000e-04 (ion)
      max iterations =       1000 (   10 inner   100 outer)
      minimizer = Grassmann conjugate gradient



     ============ Grassmann conjugate gradient iteration ============
          >>> iteration started at Fri Feb 24 15:37:17 2023  <<<
     iter.                 Energy          DeltaE        DeltaRho
     ----------------------------------------------------------------
        10      -1.719870171705e+01   -1.219371e-07    1.763819e-09
        20      -1.719870193981e+01   -3.368804e-09    1.554026e-10
        30      -1.719870194212e+01   -9.379342e-10    3.872352e-11
     *** tolerance ok. iteration terminated
          >>> iteration ended at   Fri Feb 24 15:37:32 2023  <<<

     ==============  energy results (Molecule object)  ==============


 number of electrons: spin up=     4.00000  down=     4.00000 (real space)


 APC Potential:
   0.032291213   0.018438825   0.019314020

 APC Point Charges:
  -0.742098949   0.371855642   0.370243306


 total     energy    :   -1.7198701942e+01 (   -5.73290e+00 /ion)
 total orbital energy:   -4.1147472356e+00 (   -1.02869e+00 /electron)
 hartree energy      :    1.8001172841e+01 (    4.50029e+00 /electron)
 exc-corr energy     :   -4.2427911083e+00 (   -1.06070e+00 /electron)
 APC energy          :   -9.9558073873e-03 (   -3.31860e-03 /ion)
 ion-ion energy      :    3.5814159310e+00 (    1.19381e+00 /ion)

 kinetic (planewave) :    1.2403251121e+01 (    3.10081e+00 /electron)
 V_local (planewave) :   -4.5763741972e+01 (   -1.14409e+01 /electron)
 V_nl    (planewave) :   -1.2544094603e+00 (   -3.13602e-01 /electron)
 V_Coul  (planewave) :    3.6002345682e+01 (    9.00059e+00 /electron)
 V_xc    (planewave) :   -5.5021926056e+00 (   -1.37555e+00 /electron)
 K.S. V_APC energy   :   -8.6356513377e-02 (   -2.87855e-02 /ion)
 Viral Coefficient   :   -1.3317474745e+00

 orbital energy:
    -2.7453323e-01 (  -7.470eV)
    -3.4375723e-01 (  -9.354eV)
    -5.0591518e-01 ( -13.767eV)
    -9.3316798e-01 ( -25.393eV)

== Center of Charge ==

spin up    = (    0.3271    -0.1276    -0.0921 )
spin down  = (    0.3271    -0.1276    -0.0921 )
     total = (    0.3271    -0.1276    -0.0921 )
ionic      = (    0.3417    -0.1458    -0.1901 )

== Molecular Dipole wrt Center of Mass ==

mu   = (    0.1164    -0.1456    -0.7836 ) au
|mu| =      0.8054 au (     2.0471 Debye )


 Ion Forces (au):
   1 O	(    0.00229   -0.00020    0.00378 )
   2 H	(   -0.00318   -0.00315   -0.00044 )
   3 H	(    0.00250    0.00183   -0.00155 )



*************************************************************
**                                                         **
**          PSPW Atomic Point Charge (APC) Analysis        **
**                                                         **
**   Point charge analysis based on paper by P.E. Blochl   **
**         (J. Chem. Phys. vol 103, page 7422, 1995)       **
**                                                         **
*************************************************************

 nwpw_APC object
 ---------------
 nga =   3 ngs =     9
 Gc  =   2.50000
 APC gamma: 0 0.60000
 APC gamma: 1 0.90000
 APC gamma: 2 1.35000
 - self-consistent

 APC Potential:
   0.032291213   0.018438825   0.019314020

 APC Point Charges:
  -0.742098949   0.371855642   0.370243306


 charge analysis on each atom
 ----------------------------

      no  atom        Qelc        Qion      Qtotal
   -----  ----     -------     -------     -------
       1    O       -6.742       6.000      -0.742
       2    H       -0.628       1.000       0.372
       3    H       -0.630       1.000       0.370
       Total Q      -8.000       8.000       0.000


 Gaussian coefficients of model density
 --------------------------------------

      no  atom     g=0.000     g=0.600     g=0.900     g=1.350
   -----  ----     -------     -------     -------     -------
       1     O       6.000      -1.095      -2.076      -3.571
       2     H       1.000      -0.716       0.776      -0.687
       3     H       1.000      -0.720       0.781      -0.691


 output psi to filename: ./nwchemex.movecs

 -----------------
 cputime in seconds
 prologue    : 1.845e-01
 main loop   : 1.471e+01
 epilogue    : 7.953e-02
 total       : 1.498e+01
 cputime/step: 2.132e-01 ( 69 evaluations, 22 linesearches)

 Time spent doing      total        step             percent
 total time            8.984342e+01 1.302079e+00     100.00%
 total FFT time        2.557525e+01 3.706558e-01      28.47%
 lagrange multipliers  2.770001e-02 4.014494e-04       0.03%
 local potentials      5.165274e-01 7.485904e-03       0.57%
 non-local potentials  2.005381e+00 2.906349e-02       2.23%
 ffm_dgemm             4.152934e-01 6.018744e-03       0.46%
 fmf_dgemm             8.630479e-01 1.250794e-02       0.96%
 m_diagonalize         1.593157e-03 2.308923e-05       0.00%
 mmm_multiply          2.208580e-04 3.200841e-06       0.00%
 SCVtrans              7.428100e-04 1.076536e-05       0.00%

 >>> job completed at     Fri Feb 24 15:37:32 2023 <<<
          *****************************************************
          *                                                   *
          *               PWDFT PSPW Calculation              *
          *                                                   *
          *  [ (Grassmann/Stiefel manifold implementation) ]  *
          *  [              C++ implementation             ]  *
          *                                                   *
          *              version #7.00   02/27/21             *
          *                                                   *
          *    This code was developed by Eric J. Bylaska,    *
          *    Abhishek Bagusetty, David H. Bross, ...        *
          *                                                   *
          *****************************************************
          >>> job started at       Fri Feb 24 15:37:32 2023 <<<

 psp_library: /home/sjplimp/nwchem/PWDFT/Nwpw/libraryps



 initializing nwpw_APC object
 ----------------------------
 nga =   3 ngs =     9
 Gc  =   2.50000
 APC gamma: 0 0.60000
 APC gamma: 1 0.90000
 APC gamma: 2 1.35000
 APC u:        1         0.03237
 APC u:        2         0.01843
 APC u:        3         0.01940
 - self-consistent

 reading formatted psp filename: ./O.vpp

 reading formatted psp filename: ./H.vpp
 input psi exists, reading from file: ./nwchemex.movecs

          ==============  summary of input  ==================

 input psi filename: ./nwchemex.movecs

 number of processors used: 2
 processor grid           : 2 x1
 parallel mapping         : 2d-hcurve
 parallel mapping         : balanced

 options:
   boundary conditions  = periodic
   electron spin        = restricted
   exchange-correlation = PBE96 (White and Bird) parameterization

 elements involved in the cluster:
      1: O   valence charge =  6.0  lmax =2
             comment = Parameterized (Chem.Phys.Lett., vol 322, page 447) Hamman psp 
             pseudopotential type            =  0
             highest angular component       =  2
             local potential used            =  2
             number of non-local projections =  4
             cutoff =    0.700   0.700   0.700
      2: H   valence charge =  1.0  lmax =1
             comment = Parameterized (Chem.Phys.Lett., vol 322, page 447) Hamman psp 
             pseudopotential type            =  0
             highest angular component       =  1
             local potential used            =  1
             number of non-local projections =  1
             cutoff =    0.800   0.800

 total charge =   0.000

 atom composition:
   O : 1   H : 2

 initial ion positions (au):
   1 O	(    0.30449   -0.09760    0.06166 ) - atomic mass = 15.995
   2 H	(    1.53096    0.68583   -0.98057 ) - atomic mass =  1.008
   3 H	(   -0.62475   -1.26628   -0.91343 ) - atomic mass =  1.008
   G.C.	(    0.40357   -0.22602   -0.61078 )
 C.O.M.	(    0.32113   -0.11916   -0.05124 )

 real space Electric field:
     Electric Field (au) = (   0.00000    0.00000    0.00000 )
             Center (au) = (   0.00000    0.00000    0.00000 )


 number of electrons: spin up =     4 (   4 per task) down =     4 (   4 per task)

 supercell:
      volume =   17575.98
      lattice:    a1 = <   26.000    0.000    0.000 >
                  a2 = <    0.000   26.000    0.000 >
                  a3 = <    0.000    0.000   26.000 >
      reciprocal: b1 = <    0.242    0.000    0.000 >
                  b2 = <    0.000    0.242    0.000 >
                  b3 = <    0.000    0.000    0.242 >
      lattice:    a =      26.000 b =     26.000 c =      26.000
                  alpha =  90.000 beta =  90.000 gamma =  90.000
      density cutoff = 60.000 fft =  96 x   96 x   96  (  195216 waves    97608 per task)
      wavefnc cutoff = 30.000 fft =  96 x   96 x   96  (   69013 waves    34507 per task)

 Ewald parameters:
      energy cutoff =  60.000 fft =  96 x   96 x   96  (  195216 waves    97608 per task)
      Ewald summation: cut radius =   8.276 and   1
                       Mandelung Wigner-Seitz =  1.76011888 (alpha =  2.83729748 rs = 16.12910517)

 technical parameters:
      fixed step: time step =        5.80  ficticious mass =   400000.00
      tolerance =   1.000e-09 (energy)    1.000e+00 (density)    1.000e-04 (ion)
      max iterations =       1000 (   10 inner   100 outer)
      minimizer = Grassmann conjugate gradient



     ============ Grassmann conjugate gradient iteration ============
          >>> iteration started at Fri Feb 24 15:37:32 2023  <<<
     iter.                 Energy          DeltaE        DeltaRho
     ----------------------------------------------------------------
        10      -1.719871563023e+01   -1.217943e-07    1.769172e-09
        20      -1.719871585343e+01   -3.400775e-09    1.566525e-10
        30      -1.719871585575e+01   -9.490755e-10    3.915450e-11
     *** tolerance ok. iteration terminated
          >>> iteration ended at   Fri Feb 24 15:37:47 2023  <<<

     ==============  energy results (Molecule object)  ==============


 number of electrons: spin up=     4.00000  down=     4.00000 (real space)


 APC Potential:
   0.032372199   0.018432048   0.019395932

 APC Point Charges:
  -0.741841124   0.371670391   0.370170734


 total     energy    :   -1.7198715856e+01 (   -5.73291e+00 /ion)
 total orbital energy:   -4.1128639120e+00 (   -1.02822e+00 /electron)
 hartree energy      :    1.7995291163e+01 (    4.49882e+00 /electron)
 exc-corr energy     :   -4.2417862671e+00 (   -1.06045e+00 /electron)
 APC energy          :   -9.9845758877e-03 (   -3.32819e-03 /ion)
 ion-ion energy      :    3.5737175440e+00 (    1.19124e+00 /ion)

 kinetic (planewave) :    1.2399002370e+01 (    3.09975e+00 /electron)
 V_local (planewave) :   -4.5748727366e+01 (   -1.14372e+01 /electron)
 V_nl    (planewave) :   -1.2528389179e+00 (   -3.13210e-01 /electron)
 V_Coul  (planewave) :    3.5990582326e+01 (    8.99765e+00 /electron)
 V_xc    (planewave) :   -5.5008823242e+00 (   -1.37522e+00 /electron)
 K.S. V_APC energy   :   -8.6610193852e-02 (   -2.88701e-02 /ion)
 Viral Coefficient   :   -1.3317092609e+00

 orbital energy:
    -2.7446845e-01 (  -7.469eV)
    -3.4368652e-01 (  -9.352eV)
    -5.0554322e-01 ( -13.757eV)
    -9.3273377e-01 ( -25.381eV)

== Center of Charge ==

spin up    = (    0.3270    -0.1273    -0.0926 )
spin down  = (    0.3270    -0.1273    -0.0926 )
     total = (    0.3270    -0.1273    -0.0926 )
ionic      = (    0.3416    -0.1458    -0.1905 )

== Molecular Dipole wrt Center of Mass ==

mu   = (    0.1169    -0.1479    -0.7835 ) au
|mu| =      0.8059 au (     2.0482 Debye )


 Ion Forces (au):
   1 O	(    0.00335    0.00044    0.00285 )
   2 H	(   -0.00435   -0.00391    0.00049 )
   3 H	(    0.00260    0.00191   -0.00155 )



*************************************************************
**                                                         **
**          PSPW Atomic Point Charge (APC) Analysis        **
**                                                         **
**   Point charge analysis based on paper by P.E. Blochl   **
**         (J. Chem. Phys. vol 103, page 7422, 1995)       **
**                                                         **
*************************************************************

 nwpw_APC object
 ---------------
 nga =   3 ngs =     9
 Gc  =   2.50000
 APC gamma: 0 0.60000
 APC gamma: 1 0.90000
 APC gamma: 2 1.35000
 - self-consistent

 APC Potential:
   0.032372199   0.018432048   0.019395932

 APC Point Charges:
  -0.741841124   0.371670391   0.370170734


 charge analysis on each atom
 ----------------------------

      no  atom        Qelc        Qion      Qtotal
   -----  ----     -------     -------     -------
       1    O       -6.742       6.000      -0.742
       2    H       -0.628       1.000       0.372
       3    H       -0.630       1.000       0.370
       Total Q      -8.000       8.000      -0.000


 Gaussian coefficients of model density
 --------------------------------------

      no  atom     g=0.000     g=0.600     g=0.900     g=1.350
   -----  ----     -------     -------     -------     -------
       1     O       6.000      -1.094      -2.077      -3.571
       2     H       1.000      -0.716       0.776      -0.688
       3     H       1.000      -0.720       0.783      -0.692


 output psi to filename: ./nwchemex.movecs

 -----------------
 cputime in seconds
 prologue    : 1.854e-01
 main loop   : 1.472e+01
 epilogue    : 7.945e-02
 total       : 1.499e+01
 cputime/step: 2.133e-01 ( 69 evaluations, 22 linesearches)

 Time spent doing      total        step             percent
 total time            1.048592e+02 1.519698e+00     100.00%
 total FFT time        2.981387e+01 4.320850e-01      28.43%
 lagrange multipliers  2.770001e-02 4.014494e-04       0.03%
 local potentials      6.370326e-01 9.232357e-03       0.61%
 non-local potentials  2.322153e+00 3.365439e-02       2.21%
 ffm_dgemm             4.864077e-01 7.049387e-03       0.46%
 fmf_dgemm             1.017373e+00 1.474454e-02       0.97%
 m_diagonalize         1.773788e-03 2.570707e-05       0.00%
 mmm_multiply          2.417260e-04 3.503275e-06       0.00%
 SCVtrans              8.274320e-04 1.199177e-05       0.00%

 >>> job completed at     Fri Feb 24 15:37:47 2023 <<<
          *****************************************************
          *                                                   *
          *               PWDFT PSPW Calculation              *
          *                                                   *
          *  [ (Grassmann/Stiefel manifold implementation) ]  *
          *  [              C++ implementation             ]  *
          *                                                   *
          *              version #7.00   02/27/21             *
          *                                                   *
          *    This code was developed by Eric J. Bylaska,    *
          *    Abhishek Bagusetty, David H. Bross, ...        *
          *                                                   *
          *****************************************************
          >>> job started at       Fri Feb 24 15:37:47 2023 <<<

 psp_library: /home/sjplimp/nwchem/PWDFT/Nwpw/libraryps



 initializing nwpw_APC object
 ----------------------------
 nga =   3 ngs =     9
 Gc  =   2.50000
 APC gamma: 0 0.60000
 APC gamma: 1 0.90000
 APC gamma: 2 1.35000
 APC u:        1         0.03247
 APC u:        2         0.01843
 APC u:        3         0.01948
 - self-consistent

 reading formatted psp filename: ./O.vpp

 reading formatted psp filename: ./H.vpp
 input psi exists, reading from file: ./nwchemex.movecs

          ==============  summary of input  ==================

 input psi filename: ./nwchemex.movecs

 number of processors used: 2
 processor grid           : 2 x1
 parallel mapping         : 2d-hcurve
 parallel mapping         : balanced

 options:
   boundary conditions  = periodic
   electron spin        = restricted
   exchange-correlation = PBE96 (White and Bird) parameterization

 elements involved in the cluster:
      1: O   valence charge =  6.0  lmax =2
             comment = Parameterized (Chem.Phys.Lett., vol 322, page 447) Hamman psp 
             pseudopotential type            =  0
             highest angular component       =  2
             local potential used            =  2
             number of non-local projections =  4
             cutoff =    0.700   0.700   0.700
      2: H   valence charge =  1.0  lmax =1
             comment = Parameterized (Chem.Phys.Lett., vol 322, page 447) Hamman psp 
             pseudopotential type            =  0
             highest angular component       =  1
             local potential used            =  1
             number of non-local projections =  1
             cutoff =    0.800   0.800

 total charge =   0.000

 atom composition:
   O : 1   H : 2

 initial ion positions (au):
   1 O	(    0.30423   -0.09680    0.06133 ) - atomic mass = 15.995
   2 H	(    1.53539    0.68185   -0.98518 ) - atomic mass =  1.008
   3 H	(   -0.62787   -1.26659   -0.91023 ) - atomic mass =  1.008
   G.C.	(    0.40391   -0.22718   -0.61136 )
 C.O.M.	(    0.32096   -0.11869   -0.05162 )

 real space Electric field:
     Electric Field (au) = (   0.00000    0.00000    0.00000 )
             Center (au) = (   0.00000    0.00000    0.00000 )


 number of electrons: spin up =     4 (   4 per task) down =     4 (   4 per task)

 supercell:
      volume =   17575.98
      lattice:    a1 = <   26.000    0.000    0.000 >
                  a2 = <    0.000   26.000    0.000 >
                  a3 = <    0.000    0.000   26.000 >
      reciprocal: b1 = <    0.242    0.000    0.000 >
                  b2 = <    0.000    0.242    0.000 >
                  b3 = <    0.000    0.000    0.242 >
      lattice:    a =      26.000 b =     26.000 c =      26.000
                  alpha =  90.000 beta =  90.000 gamma =  90.000
      density cutoff = 60.000 fft =  96 x   96 x   96  (  195216 waves    97608 per task)
      wavefnc cutoff = 30.000 fft =  96 x   96 x   96  (   69013 waves    34507 per task)

 Ewald parameters:
      energy cutoff =  60.000 fft =  96 x   96 x   96  (  195216 waves    97608 per task)
      Ewald summation: cut radius =   8.276 and   1
                       Mandelung Wigner-Seitz =  1.76011888 (alpha =  2.83729748 rs = 16.12910517)

 technical parameters:
      fixed step: time step =        5.80  ficticious mass =   400000.00
      tolerance =   1.000e-09 (energy)    1.000e+00 (density)    1.000e-04 (ion)
      max iterations =       1000 (   10 inner   100 outer)
      minimizer = Grassmann conjugate gradient



     ============ Grassmann conjugate gradient iteration ============
          >>> iteration started at Fri Feb 24 15:37:47 2023  <<<
     iter.                 Energy          DeltaE        DeltaRho
     ----------------------------------------------------------------
        10      -1.719872820986e+01   -1.215313e-07    1.769468e-09
        20      -1.719872843271e+01   -3.399332e-09    1.563800e-10
        30      -1.719872843504e+01   -9.486847e-10    3.917318e-11
     *** tolerance ok. iteration terminated
          >>> iteration ended at   Fri Feb 24 15:38:02 2023  <<<

     ==============  energy results (Molecule object)  ==============


 number of electrons: spin up=     4.00000  down=     4.00000 (real space)


 APC Potential:
   0.032465951   0.018431736   0.019484558

 APC Point Charges:
  -0.741609917   0.371499753   0.370110164


 total     energy    :   -1.7198728435e+01 (   -5.73291e+00 /ion)
 total orbital energy:   -4.1110074280e+00 (   -1.02775e+00 /electron)
 hartree energy      :    1.7989401091e+01 (    4.49735e+00 /electron)
 exc-corr energy     :   -4.2407804329e+00 (   -1.06020e+00 /electron)
 APC energy          :   -1.0018253238e-02 (   -3.33942e-03 /ion)
 ion-ion energy      :    3.5660066445e+00 (    1.18867e+00 /ion)

 kinetic (planewave) :    1.2394754009e+01 (    3.09869e+00 /electron)
 V_local (planewave) :   -4.5733724730e+01 (   -1.14334e+01 /electron)
 V_nl    (planewave) :   -1.2512681727e+00 (   -3.12817e-01 /electron)
 V_Coul  (planewave) :    3.5978802181e+01 (    8.99470e+00 /electron)
 V_xc    (planewave) :   -5.4995707151e+00 (   -1.37489e+00 /electron)
 K.S. V_APC energy   :   -8.6901410047e-02 (   -2.89671e-02 /ion)
 Viral Coefficient   :   -1.3316731760e+00

 orbital energy:
    -2.7440739e-01 (  -7.467eV)
    -3.4362438e-01 (  -9.351eV)
    -5.0516816e-01 ( -13.746eV)
    -9.3230379e-01 ( -25.369eV)

== Center of Charge ==

spin up    = (    0.3269    -0.1269    -0.0930 )
spin down  = (    0.3269    -0.1269    -0.0930 )
     total = (    0.3269    -0.1269    -0.0930 )
ionic      = (    0.3416    -0.1457    -0.1909 )

== Molecular Dipole wrt Center of Mass ==

mu   = (    0.1175    -0.1502    -0.7835 ) au
|mu| =      0.8064 au (     2.0494 Debye )


 Ion Forces (au):
   1 O	(    0.00441    0.00105    0.00191 )
   2 H	(   -0.00551   -0.00464    0.00141 )
   3 H	(    0.00270    0.00198   -0.00155 )



*************************************************************
**                                                         **
**          PSPW Atomic Point Charge (APC) Analysis        **
**                                                         **
**   Point charge analysis based on paper by P.E. Blochl   **
**         (J. Chem. Phys. vol 103, page 7422, 1995)       **
**                                                         **
*************************************************************

 nwpw_APC object
 ---------------
 nga =   3 ngs =     9
 Gc  =   2.50000
 APC gamma: 0 0.60000
 APC gamma: 1 0.90000
 APC gamma: 2 1.35000
 - self-consistent

 APC Potential:
   0.032465951   0.018431736   0.019484558

 APC Point Charges:
  -0.741609917   0.371499753   0.370110164


 charge analysis on each atom
 ----------------------------

      no  atom        Qelc        Qion      Qtotal
   -----  ----     -------     -------     -------
       1    O       -6.742       6.000      -0.742
       2    H       -0.629       1.000       0.371
       3    H       -0.630       1.000       0.370
       Total Q      -8.000       8.000       0.000


 Gaussian coefficients of model density
 --------------------------------------

      no  atom     g=0.000     g=0.600     g=0.900     g=1.350
   -----  ----     -------     -------     -------     -------
       1     O       6.000      -1.092      -2.077      -3.572
       2     H       1.000      -0.715       0.775      -0.689
       3     H       1.000      -0.721       0.784      -0.693


 output psi to filename: ./nwchemex.movecs

 -----------------
 cputime in seconds
 prologue    : 1.844e-01
 main loop   : 1.508e+01
 epilogue    : 7.972e-02
 total       : 1.534e+01
 cputime/step: 2.185e-01 ( 69 evaluations, 22 linesearches)

 Time spent doing      total        step             percent
 total time            1.202296e+02 1.742458e+00     100.00%
 total FFT time        3.418173e+01 4.953874e-01      28.43%
 lagrange multipliers  2.770001e-02 4.014494e-04       0.02%
 local potentials      7.595677e-01 1.100823e-02       0.63%
 non-local potentials  2.645585e+00 3.834181e-02       2.20%
 ffm_dgemm             5.602690e-01 8.119841e-03       0.47%
 fmf_dgemm             1.175396e+00 1.703473e-02       0.98%
 m_diagonalize         1.971332e-03 2.857003e-05       0.00%
 mmm_multiply          2.742840e-04 3.975130e-06       0.00%
 SCVtrans              9.132550e-04 1.323558e-05       0.00%

 >>> job completed at     Fri Feb 24 15:38:02 2023 <<<
          *****************************************************
          *                                                   *
          *               PWDFT PSPW Calculation              *
          *                                                   *
          *  [ (Grassmann/Stiefel manifold implementation) ]  *
          *  [              C++ implementation             ]  *
          *                                                   *
          *              version #7.00   02/27/21             *
          *                                                   *
          *    This code was developed by Eric J. Bylaska,    *
          *    Abhishek Bagusetty, David H. Bross, ...        *
          *                                                   *
          *****************************************************
          >>> job started at       Fri Feb 24 15:38:02 2023 <<<

 psp_library: /home/sjplimp/nwchem/PWDFT/Nwpw/libraryps



 initializing nwpw_APC object
 ----------------------------
 nga =   3 ngs =     9
 Gc  =   2.50000
 APC gamma: 0 0.60000
 APC gamma: 1 0.90000
 APC gamma: 2 1.35000
 APC u:        1         0.03257
 APC u:        2         0.01844
 APC u:        3         0.01958
 - self-consistent

 reading formatted psp filename: ./O.vpp

 reading formatted psp filename: ./H.vpp
 input psi exists, reading from file: ./nwchemex.movecs

          ==============  summary of input  ==================

 input psi filename: ./nwchemex.movecs

 number of processors used: 2
 processor grid           : 2 x1
 parallel mapping         : 2d-hcurve
 parallel mapping         : balanced

 options:
   boundary conditions  = periodic
   electron spin        = restricted
   exchange-correlation = PBE96 (White and Bird) parameterization

 elements involved in the cluster:
      1: O   valence charge =  6.0  lmax =2
             comment = Parameterized (Chem.Phys.Lett., vol 322, page 447) Hamman psp 
             pseudopotential type            =  0
             highest angular component       =  2
             local potential used            =  2
             number of non-local projections =  4
             cutoff =    0.700   0.700   0.700
      2: H   valence charge =  1.0  lmax =1
             comment = Parameterized (Chem.Phys.Lett., vol 322, page 447) Hamman psp 
             pseudopotential type            =  0
             highest angular component       =  1
             local potential used            =  1
             number of non-local projections =  1
             cutoff =    0.800   0.800

 total charge =   0.000

 atom composition:
   O : 1   H : 2

 initial ion positions (au):
   1 O	(    0.30396   -0.09600    0.06100 ) - atomic mass = 15.995
   2 H	(    1.53978    0.67784   -0.98978 ) - atomic mass =  1.008
   3 H	(   -0.63097   -1.26689   -0.90706 ) - atomic mass =  1.008
   G.C.	(    0.40425   -0.22835   -0.61195 )
 C.O.M.	(    0.32080   -0.11822   -0.05199 )

 real space Electric field:
     Electric Field (au) = (   0.00000    0.00000    0.00000 )
             Center (au) = (   0.00000    0.00000    0.00000 )


 number of electrons: spin up =     4 (   4 per task) down =     4 (   4 per task)

 supercell:
      volume =   17575.98
      lattice:    a1 = <   26.000    0.000    0.000 >
                  a2 = <    0.000   26.000    0.000 >
                  a3 = <    0.000    0.000   26.000 >
      reciprocal: b1 = <    0.242    0.000    0.000 >
                  b2 = <    0.000    0.242    0.000 >
                  b3 = <    0.000    0.000    0.242 >
      lattice:    a =      26.000 b =     26.000 c =      26.000
                  alpha =  90.000 beta =  90.000 gamma =  90.000
      density cutoff = 60.000 fft =  96 x   96 x   96  (  195216 waves    97608 per task)
      wavefnc cutoff = 30.000 fft =  96 x   96 x   96  (   69013 waves    34507 per task)

 Ewald parameters:
      energy cutoff =  60.000 fft =  96 x   96 x   96  (  195216 waves    97608 per task)
      Ewald summation: cut radius =   8.276 and   1
                       Mandelung Wigner-Seitz =  1.76011888 (alpha =  2.83729748 rs = 16.12910517)

 technical parameters:
      fixed step: time step =        5.80  ficticious mass =   400000.00
      tolerance =   1.000e-09 (energy)    1.000e+00 (density)    1.000e-04 (ion)
      max iterations =       1000 (   10 inner   100 outer)
      minimizer = Grassmann conjugate gradient



     ============ Grassmann conjugate gradient iteration ============
          >>> iteration started at Fri Feb 24 15:38:02 2023  <<<
     iter.                 Energy          DeltaE        DeltaRho
     ----------------------------------------------------------------
        10      -1.719873952436e+01   -1.210124e-07    1.761503e-09
        20      -1.719873974626e+01   -3.384773e-09    1.558265e-10
        30      -1.719873974856e+01   -9.415757e-10    3.924430e-11
     *** tolerance ok. iteration terminated
          >>> iteration ended at   Fri Feb 24 15:38:17 2023  <<<

     ==============  energy results (Molecule object)  ==============


 number of electrons: spin up=     4.00000  down=     4.00000 (real space)


 APC Potential:
   0.032572202   0.018437800   0.019579779

 APC Point Charges:
  -0.741407648   0.371345485   0.370062163


 total     energy    :   -1.7198739749e+01 (   -5.73291e+00 /ion)
 total orbital energy:   -4.1091858717e+00 (   -1.02730e+00 /electron)
 hartree energy      :    1.7983528406e+01 (    4.49588e+00 /electron)
 exc-corr energy     :   -4.2397779732e+00 (   -1.05994e+00 /electron)
 APC energy          :   -1.0056750555e-02 (   -3.35225e-03 /ion)
 ion-ion energy      :    3.5583165480e+00 (    1.18611e+00 /ion)

 kinetic (planewave) :    1.2390524637e+01 (    3.09763e+00 /electron)
 V_local (planewave) :   -4.5718799579e+01 (   -1.14297e+01 /electron)
 V_nl    (planewave) :   -1.2497042596e+00 (   -3.12426e-01 /electron)
 V_Coul  (planewave) :    3.5967056813e+01 (    8.99176e+00 /electron)
 V_xc    (planewave) :   -5.4982634832e+00 (   -1.37457e+00 /electron)
 K.S. V_APC energy   :   -8.7229222083e-02 (   -2.90764e-02 /ion)
 Viral Coefficient   :   -1.3316393770e+00

 orbital energy:
    -2.7435032e-01 (  -7.466eV)
    -3.4357103e-01 (  -9.349eV)
    -5.0479172e-01 ( -13.736eV)
    -9.3187987e-01 ( -25.358eV)

== Center of Charge ==

spin up    = (    0.3268    -0.1266    -0.0934 )
spin down  = (    0.3268    -0.1266    -0.0934 )
     total = (    0.3268    -0.1266    -0.0934 )
ionic      = (    0.3416    -0.1456    -0.1914 )

== Molecular Dipole wrt Center of Mass ==

mu   = (    0.1180    -0.1526    -0.7835 ) au
|mu| =      0.8069 au (     2.0509 Debye )


 Ion Forces (au):
   1 O	(    0.00544    0.00164    0.00098 )
   2 H	(   -0.00665   -0.00535    0.00233 )
   3 H	(    0.00280    0.00206   -0.00154 )



*************************************************************
**                                                         **
**          PSPW Atomic Point Charge (APC) Analysis        **
**                                                         **
**   Point charge analysis based on paper by P.E. Blochl   **
**         (J. Chem. Phys. vol 103, page 7422, 1995)       **
**                                                         **
*************************************************************

 nwpw_APC object
 ---------------
 nga =   3 ngs =     9
 Gc  =   2.50000
 APC gamma: 0 0.60000
 APC gamma: 1 0.90000
 APC gamma: 2 1.35000
 - self-consistent

 APC Potential:
   0.032572202   0.018437800   0.019579779

 APC Point Charges:
  -0.741407648   0.371345485   0.370062163


 charge analysis on each atom
 ----------------------------

      no  atom        Qelc        Qion      Qtotal
   -----  ----     -------     -------     -------
       1    O       -6.741       6.000      -0.741
       2    H       -0.629       1.000       0.371
       3    H       -0.630       1.000       0.370
       Total Q      -8.000       8.000       0.000


 Gaussian coefficients of model density
 --------------------------------------

      no  atom     g=0.000     g=0.600     g=0.900     g=1.350
   -----  ----     -------     -------     -------     -------
       1     O       6.000      -1.091      -2.077      -3.573
       2     H       1.000      -0.714       0.775      -0.690
       3     H       1.000      -0.722       0.785      -0.694


 output psi to filename: ./nwchemex.movecs

 -----------------
 cputime in seconds
 prologue    : 1.859e-01
 main loop   : 1.513e+01
 epilogue    : 8.564e-02
 total       : 1.541e+01
 cputime/step: 2.162e-01 ( 70 evaluations, 22 linesearches)

 Time spent doing      total        step             percent
 total time            1.356640e+02 1.938057e+00     100.00%
 total FFT time        3.855053e+01 5.507218e-01      28.42%
 lagrange multipliers  2.770001e-02 3.957144e-04       0.02%
 local potentials      8.837432e-01 1.262490e-02       0.65%
 non-local potentials  2.971914e+00 4.245591e-02       2.19%
 ffm_dgemm             6.336332e-01 9.051903e-03       0.47%
 fmf_dgemm             1.331620e+00 1.902314e-02       0.98%
 m_diagonalize         2.158650e-03 3.083786e-05       0.00%
 mmm_multiply          2.969320e-04 4.241886e-06       0.00%
 SCVtrans              9.962090e-04 1.423156e-05       0.00%

 >>> job completed at     Fri Feb 24 15:38:18 2023 <<<
          *****************************************************
          *                                                   *
          *               PWDFT PSPW Calculation              *
          *                                                   *
          *  [ (Grassmann/Stiefel manifold implementation) ]  *
          *  [              C++ implementation             ]  *
          *                                                   *
          *              version #7.00   02/27/21             *
          *                                                   *
          *    This code was developed by Eric J. Bylaska,    *
          *    Abhishek Bagusetty, David H. Bross, ...        *
          *                                                   *
          *****************************************************
          >>> job started at       Fri Feb 24 15:38:18 2023 <<<

 psp_library: /home/sjplimp/nwchem/PWDFT/Nwpw/libraryps



 initializing nwpw_APC object
 ----------------------------
 nga =   3 ngs =     9
 Gc  =   2.50000
 APC gamma: 0 0.60000
 APC gamma: 1 0.90000
 APC gamma: 2 1.35000
 APC u:        1         0.03269
 APC u:        2         0.01845
 APC u:        3         0.01968
 - self-consistent

 reading formatted psp filename: ./O.vpp

 reading formatted psp filename: ./H.vpp
 input psi exists, reading from file: ./nwchemex.movecs

          ==============  summary of input  ==================

 input psi filename: ./nwchemex.movecs

 number of processors used: 2
 processor grid           : 2 x1
 parallel mapping         : 2d-hcurve
 parallel mapping         : balanced

 options:
   boundary conditions  = periodic
   electron spin        = restricted
   exchange-correlation = PBE96 (White and Bird) parameterization

 elements involved in the cluster:
      1: O   valence charge =  6.0  lmax =2
             comment = Parameterized (Chem.Phys.Lett., vol 322, page 447) Hamman psp 
             pseudopotential type            =  0
             highest angular component       =  2
             local potential used            =  2
             number of non-local projections =  4
             cutoff =    0.700   0.700   0.700
      2: H   valence charge =  1.0  lmax =1
             comment = Parameterized (Chem.Phys.Lett., vol 322, page 447) Hamman psp 
             pseudopotential type            =  0
             highest angular component       =  1
             local potential used            =  1
             number of non-local projections =  1
             cutoff =    0.800   0.800

 total charge =   0.000

 atom composition:
   O : 1   H : 2

 initial ion positions (au):
   1 O	(    0.30370   -0.09520    0.06067 ) - atomic mass = 15.995
   2 H	(    1.54412    0.67378   -0.99439 ) - atomic mass =  1.008
   3 H	(   -0.63405   -1.26719   -0.90393 ) - atomic mass =  1.008
   G.C.	(    0.40459   -0.22954   -0.61255 )
 C.O.M.	(    0.32064   -0.11775   -0.05236 )

 real space Electric field:
     Electric Field (au) = (   0.00000    0.00000    0.00000 )
             Center (au) = (   0.00000    0.00000    0.00000 )


 number of electrons: spin up =     4 (   4 per task) down =     4 (   4 per task)

 supercell:
      volume =   17575.98
      lattice:    a1 = <   26.000    0.000    0.000 >
                  a2 = <    0.000   26.000    0.000 >
                  a3 = <    0.000    0.000   26.000 >
      reciprocal: b1 = <    0.242    0.000    0.000 >
                  b2 = <    0.000    0.242    0.000 >
                  b3 = <    0.000    0.000    0.242 >
      lattice:    a =      26.000 b =     26.000 c =      26.000
                  alpha =  90.000 beta =  90.000 gamma =  90.000
      density cutoff = 60.000 fft =  96 x   96 x   96  (  195216 waves    97608 per task)
      wavefnc cutoff = 30.000 fft =  96 x   96 x   96  (   69013 waves    34507 per task)

 Ewald parameters:
      energy cutoff =  60.000 fft =  96 x   96 x   96  (  195216 waves    97608 per task)
      Ewald summation: cut radius =   8.276 and   1
                       Mandelung Wigner-Seitz =  1.76011888 (alpha =  2.83729748 rs = 16.12910517)

 technical parameters:
      fixed step: time step =        5.80  ficticious mass =   400000.00
      tolerance =   1.000e-09 (energy)    1.000e+00 (density)    1.000e-04 (ion)
      max iterations =       1000 (   10 inner   100 outer)
      minimizer = Grassmann conjugate gradient



     ============ Grassmann conjugate gradient iteration ============
          >>> iteration started at Fri Feb 24 15:38:18 2023  <<<
     iter.                 Energy          DeltaE        DeltaRho
     ----------------------------------------------------------------
        10      -1.719874972499e+01   -1.202626e-07    1.745497e-09
        20      -1.719874994545e+01   -3.359311e-09    1.543546e-10
        30      -1.719874994772e+01   -9.330776e-10    3.890141e-11
     *** tolerance ok. iteration terminated
          >>> iteration ended at   Fri Feb 24 15:38:33 2023  <<<

     ==============  energy results (Molecule object)  ==============


 number of electrons: spin up=     4.00000  down=     4.00000 (real space)


 APC Potential:
   0.032690629   0.018450122   0.019681445

 APC Point Charges:
  -0.741234970   0.371208293   0.370026677


 total     energy    :   -1.7198749948e+01 (   -5.73292e+00 /ion)
 total orbital energy:   -4.1074073869e+00 (   -1.02685e+00 /electron)
 hartree energy      :    1.7977697859e+01 (    4.49442e+00 /electron)
[...]


 Gaussian coefficients of model density
 --------------------------------------

      no  atom     g=0.000     g=0.600     g=0.900     g=1.350
   -----  ----     -------     -------     -------     -------
       1     O       6.000      -1.089      -2.075      -3.577
       2     H       1.000      -0.711       0.774      -0.693
       3     H       1.000      -0.723       0.789      -0.696


 output psi to filename: ./nwchemex.movecs

 -----------------
 cputime in seconds
 prologue    : 1.838e-01
 main loop   : 1.505e+01
 epilogue    : 8.071e-02
 total       : 1.532e+01
 cputime/step: 2.151e-01 ( 70 evaluations, 22 linesearches)

 Time spent doing      total        step             percent
 total time            1.817423e+02 2.596318e+00     100.00%
 total FFT time        5.160324e+01 7.371891e-01      28.39%
 lagrange multipliers  2.770001e-02 3.957144e-04       0.02%
 local potentials      1.251543e+00 1.787919e-02       0.69%
 non-local potentials  3.948653e+00 5.640933e-02       2.17%
 ffm_dgemm             8.518783e-01 1.216969e-02       0.47%
 fmf_dgemm             1.801103e+00 2.573004e-02       0.99%
 m_diagonalize         2.756033e-03 3.937190e-05       0.00%
 mmm_multiply          3.777040e-04 5.395771e-06       0.00%
 SCVtrans              1.244777e-03 1.778253e-05       0.00%

 >>> job completed at     Fri Feb 24 15:39:04 2023 <<<
          *****************************************************
          *                                                   *
          *               PWDFT PSPW Calculation              *
          *                                                   *
          *  [ (Grassmann/Stiefel manifold implementation) ]  *
          *  [              C++ implementation             ]  *
          *                                                   *
          *              version #7.00   02/27/21             *
          *                                                   *
          *    This code was developed by Eric J. Bylaska,    *
          *    Abhishek Bagusetty, David H. Bross, ...        *
          *                                                   *
          *****************************************************
          >>> job started at       Fri Feb 24 15:39:04 2023 <<<

 psp_library: /home/sjplimp/nwchem/PWDFT/Nwpw/libraryps



 initializing nwpw_APC object
 ----------------------------
 nga =   3 ngs =     9
 Gc  =   2.50000
 APC gamma: 0 0.60000
 APC gamma: 1 0.90000
 APC gamma: 2 1.35000
 APC u:        1         0.03311
 APC u:        2         0.01852
 APC u:        3         0.02002
 - self-consistent

 reading formatted psp filename: ./O.vpp

 reading formatted psp filename: ./H.vpp
 input psi exists, reading from file: ./nwchemex.movecs

          ==============  summary of input  ==================

 input psi filename: ./nwchemex.movecs

 number of processors used: 2
 processor grid           : 2 x1
 parallel mapping         : 2d-hcurve
 parallel mapping         : balanced

 options:
   boundary conditions  = periodic
   electron spin        = restricted
   exchange-correlation = PBE96 (White and Bird) parameterization

 elements involved in the cluster:
      1: O   valence charge =  6.0  lmax =2
             comment = Parameterized (Chem.Phys.Lett., vol 322, page 447) Hamman psp 
             pseudopotential type            =  0
             highest angular component       =  2
             local potential used            =  2
             number of non-local projections =  4
             cutoff =    0.700   0.700   0.700
      2: H   valence charge =  1.0  lmax =1
             comment = Parameterized (Chem.Phys.Lett., vol 322, page 447) Hamman psp 
             pseudopotential type            =  0
             highest angular component       =  1
             local potential used            =  1
             number of non-local projections =  1
             cutoff =    0.800   0.800

 total charge =   0.000

 atom composition:
   O : 1   H : 2

 initial ion positions (au):
   1 O	(    0.30292   -0.09278    0.05972 ) - atomic mass = 15.995
   2 H	(    1.55675    0.66124   -1.00811 ) - atomic mass =  1.008
   3 H	(   -0.64312   -1.26803   -0.89474 ) - atomic mass =  1.008
   G.C.	(    0.40552   -0.23319   -0.61438 )
 C.O.M.	(    0.32015   -0.11636   -0.05346 )

 real space Electric field:
     Electric Field (au) = (   0.00000    0.00000    0.00000 )
             Center (au) = (   0.00000    0.00000    0.00000 )


 number of electrons: spin up =     4 (   4 per task) down =     4 (   4 per task)

 supercell:
      volume =   17575.98
      lattice:    a1 = <   26.000    0.000    0.000 >
                  a2 = <    0.000   26.000    0.000 >
                  a3 = <    0.000    0.000   26.000 >
      reciprocal: b1 = <    0.242    0.000    0.000 >
                  b2 = <    0.000    0.242    0.000 >
                  b3 = <    0.000    0.000    0.242 >
      lattice:    a =      26.000 b =     26.000 c =      26.000
                  alpha =  90.000 beta =  90.000 gamma =  90.000
      density cutoff = 60.000 fft =  96 x   96 x   96  (  195216 waves    97608 per task)
      wavefnc cutoff = 30.000 fft =  96 x   96 x   96  (   69013 waves    34507 per task)

 Ewald parameters:
      energy cutoff =  60.000 fft =  96 x   96 x   96  (  195216 waves    97608 per task)
      Ewald summation: cut radius =   8.276 and   1
                       Mandelung Wigner-Seitz =  1.76011888 (alpha =  2.83729748 rs = 16.12910517)

 technical parameters:
      fixed step: time step =        5.80  ficticious mass =   400000.00
      tolerance =   1.000e-09 (energy)    1.000e+00 (density)    1.000e-04 (ion)
      max iterations =       1000 (   10 inner   100 outer)
      minimizer = Grassmann conjugate gradient



     ============ Grassmann conjugate gradient iteration ============
          >>> iteration started at Fri Feb 24 15:39:04 2023  <<<
     iter.                 Energy          DeltaE        DeltaRho
     ----------------------------------------------------------------
        10      -1.719877621178e+01   -1.165163e-07    1.648981e-09
        20      -1.719877642470e+01   -3.218972e-09    1.467855e-10
        30      -1.719877642687e+01   -8.877059e-10    3.689561e-11
     *** tolerance ok. iteration terminated
          >>> iteration ended at   Fri Feb 24 15:39:19 2023  <<<

     ==============  energy results (Molecule object)  ==============


 number of electrons: spin up=     4.00000  down=     4.00000 (real space)


 APC Potential:
   0.033114919   0.018523052   0.020023140

 APC Point Charges:
  -0.740903327   0.370910054   0.369993273


 total     energy    :   -1.7198776427e+01 (   -5.73293e+00 /ion)
 total orbital energy:   -4.1023988644e+00 (   -1.02560e+00 /electron)
 hartree energy      :    1.7960702965e+01 (    4.49018e+00 /electron)
 exc-corr energy     :   -4.2358850111e+00 (   -1.05897e+00 /electron)
 APC energy          :   -1.0256140317e-02 (   -3.41871e-03 /ion)
 ion-ion energy      :    3.5283983474e+00 (    1.17613e+00 /ion)

 kinetic (planewave) :    1.2374141616e+01 (    3.09354e+00 /electron)
 V_local (planewave) :   -4.5661116551e+01 (   -1.14153e+01 /electron)
 V_nl    (planewave) :   -1.2436429671e+00 (   -3.10911e-01 /electron)
 V_Coul  (planewave) :    3.5921405929e+01 (    8.98035e+00 /electron)
 V_xc    (planewave) :   -5.4931868910e+00 (   -1.37330e+00 /electron)
 K.S. V_APC energy   :   -8.8881315163e-02 (   -2.96271e-02 /ion)
 Viral Coefficient   :   -1.3315299753e+00

 orbital energy:
    -2.7416689e-01 (  -7.461eV)
    -3.4344944e-01 (  -9.346eV)
    -5.0330457e-01 ( -13.696eV)
    -9.3027853e-01 ( -25.314eV)

== Center of Charge ==

spin up    = (    0.3264    -0.1252    -0.0951 )
spin down  = (    0.3264    -0.1252    -0.0951 )
     total = (    0.3264    -0.1252    -0.0951 )
ionic      = (    0.3414    -0.1454    -0.1931 )

== Molecular Dipole wrt Center of Mass ==

mu   = (    0.1203    -0.1621    -0.7842 ) au
|mu| =      0.8097 au (     2.0580 Debye )


 Ion Forces (au):
   1 O	(    0.00933    0.00367   -0.00270 )
   2 H	(   -0.01100   -0.00790    0.00586 )
   3 H	(    0.00323    0.00242   -0.00144 )



*************************************************************
**                                                         **
**          PSPW Atomic Point Charge (APC) Analysis        **
**                                                         **
**   Point charge analysis based on paper by P.E. Blochl   **
**         (J. Chem. Phys. vol 103, page 7422, 1995)       **
**                                                         **
*************************************************************

 nwpw_APC object
 ---------------
 nga =   3 ngs =     9
 Gc  =   2.50000
 APC gamma: 0 0.60000
 APC gamma: 1 0.90000
 APC gamma: 2 1.35000
 - self-consistent

 APC Potential:
   0.033114919   0.018523052   0.020023140

 APC Point Charges:
  -0.740903327   0.370910054   0.369993273


 charge analysis on each atom
 ----------------------------

      no  atom        Qelc        Qion      Qtotal
   -----  ----     -------     -------     -------
       1    O       -6.741       6.000      -0.741
       2    H       -0.629       1.000       0.371
       3    H       -0.630       1.000       0.370
       Total Q      -8.000       8.000      -0.000


 Gaussian coefficients of model density
 --------------------------------------

      no  atom     g=0.000     g=0.600     g=0.900     g=1.350
   -----  ----     -------     -------     -------     -------
       1     O       6.000      -1.089      -2.074      -3.578
       2     H       1.000      -0.710       0.774      -0.693
       3     H       1.000      -0.724       0.790      -0.696


 output psi to filename: ./nwchemex.movecs

 -----------------
 cputime in seconds
 prologue    : 1.884e-01
 main loop   : 1.509e+01
 epilogue    : 8.094e-02
 total       : 1.536e+01
 cputime/step: 2.155e-01 ( 70 evaluations, 22 linesearches)

 Time spent doing      total        step             percent
 total time            1.971258e+02 2.816083e+00     100.00%
 total FFT time        5.596337e+01 7.994767e-01      28.39%
 lagrange multipliers  2.770001e-02 3.957144e-04       0.01%
 local potentials      1.374475e+00 1.963536e-02       0.70%
 non-local potentials  4.274452e+00 6.106360e-02       2.17%
 ffm_dgemm             9.247135e-01 1.321019e-02       0.47%
 fmf_dgemm             1.956741e+00 2.795345e-02       0.99%
 m_diagonalize         2.942782e-03 4.203974e-05       0.00%
 mmm_multiply          4.013750e-04 5.733929e-06       0.00%
 SCVtrans              1.324074e-03 1.891534e-05       0.00%

 >>> job completed at     Fri Feb 24 15:39:19 2023 <<<
          *****************************************************
          *                                                   *
          *               PWDFT PSPW Calculation              *
          *                                                   *
          *  [ (Grassmann/Stiefel manifold implementation) ]  *
          *  [              C++ implementation             ]  *
          *                                                   *
          *              version #7.00   02/27/21             *
          *                                                   *
          *    This code was developed by Eric J. Bylaska,    *
          *    Abhishek Bagusetty, David H. Bross, ...        *
          *                                                   *
          *****************************************************
          >>> job started at       Fri Feb 24 15:39:19 2023 <<<

 psp_library: /home/sjplimp/nwchem/PWDFT/Nwpw/libraryps



 initializing nwpw_APC object
 ----------------------------
 nga =   3 ngs =     9
 Gc  =   2.50000
 APC gamma: 0 0.60000
 APC gamma: 1 0.90000
 APC gamma: 2 1.35000
 APC u:        1         0.03328
 APC u:        2         0.01856
 APC u:        3         0.02015
 - self-consistent

 reading formatted psp filename: ./O.vpp

 reading formatted psp filename: ./H.vpp
 input psi exists, reading from file: ./nwchemex.movecs

          ==============  summary of input  ==================

 input psi filename: ./nwchemex.movecs

 number of processors used: 2
 processor grid           : 2 x1
 parallel mapping         : 2d-hcurve
 parallel mapping         : balanced

 options:
   boundary conditions  = periodic
   electron spin        = restricted
   exchange-correlation = PBE96 (White and Bird) parameterization

 elements involved in the cluster:
      1: O   valence charge =  6.0  lmax =2
             comment = Parameterized (Chem.Phys.Lett., vol 322, page 447) Hamman psp 
             pseudopotential type            =  0
             highest angular component       =  2
             local potential used            =  2
             number of non-local projections =  4
             cutoff =    0.700   0.700   0.700
      2: H   valence charge =  1.0  lmax =1
             comment = Parameterized (Chem.Phys.Lett., vol 322, page 447) Hamman psp 
             pseudopotential type            =  0
             highest angular component       =  1
             local potential used            =  1
             number of non-local projections =  1
             cutoff =    0.800   0.800

 total charge =   0.000

 atom composition:
   O : 1   H : 2

 initial ion positions (au):
   1 O	(    0.30267   -0.09197    0.05940 ) - atomic mass = 15.995
   2 H	(    1.56079    0.65693   -1.01263 ) - atomic mass =  1.008
   3 H	(   -0.64609   -1.26829   -0.89174 ) - atomic mass =  1.008
   G.C.	(    0.40579   -0.23444   -0.61499 )
 C.O.M.	(    0.31999   -0.11589   -0.05383 )

 real space Electric field:
     Electric Field (au) = (   0.00000    0.00000    0.00000 )
             Center (au) = (   0.00000    0.00000    0.00000 )


 number of electrons: spin up =     4 (   4 per task) down =     4 (   4 per task)

 supercell:
      volume =   17575.98
      lattice:    a1 = <   26.000    0.000    0.000 >
                  a2 = <    0.000   26.000    0.000 >
                  a3 = <    0.000    0.000   26.000 >
      reciprocal: b1 = <    0.242    0.000    0.000 >
                  b2 = <    0.000    0.242    0.000 >
                  b3 = <    0.000    0.000    0.242 >
      lattice:    a =      26.000 b =     26.000 c =      26.000
                  alpha =  90.000 beta =  90.000 gamma =  90.000
      density cutoff = 60.000 fft =  96 x   96 x   96  (  195216 waves    97608 per task)
      wavefnc cutoff = 30.000 fft =  96 x   96 x   96  (   69013 waves    34507 per task)

 Ewald parameters:
      energy cutoff =  60.000 fft =  96 x   96 x   96  (  195216 waves    97608 per task)
      Ewald summation: cut radius =   8.276 and   1
                       Mandelung Wigner-Seitz =  1.76011888 (alpha =  2.83729748 rs = 16.12910517)

 technical parameters:
      fixed step: time step =        5.80  ficticious mass =   400000.00
      tolerance =   1.000e-09 (energy)    1.000e+00 (density)    1.000e-04 (ion)
      max iterations =       1000 (   10 inner   100 outer)
      minimizer = Grassmann conjugate gradient



     ============ Grassmann conjugate gradient iteration ============
          >>> iteration started at Fri Feb 24 15:39:19 2023  <<<
     iter.                 Energy          DeltaE        DeltaRho
     ----------------------------------------------------------------
        10      -1.719878482165e+01   -1.148640e-07    1.602574e-09
        20      -1.719878503117e+01   -3.151882e-09    1.429151e-10
        30      -1.719878503330e+01   -8.673275e-10    3.582155e-11
     *** tolerance ok. iteration terminated
          >>> iteration ended at   Fri Feb 24 15:39:34 2023  <<<

     ==============  energy results (Molecule object)  ==============


 number of electrons: spin up=     4.00000  down=     4.00000 (real space)


 APC Potential:
   0.033277730   0.018558691   0.020148449

 APC Point Charges:
  -0.740855684   0.370850189   0.370005495


 total     energy    :   -1.7198785033e+01 (   -5.73293e+00 /ion)
 total orbital energy:   -4.1008620140e+00 (   -1.02522e+00 /electron)
 hartree energy      :    1.7955277640e+01 (    4.48882e+00 /electron)
 exc-corr energy     :   -4.2349602584e+00 (   -1.05874e+00 /electron)
 APC energy          :   -1.0316464732e-02 (   -3.43882e-03 /ion)
 ion-ion energy      :    3.5212785645e+00 (    1.17376e+00 /ion)

 kinetic (planewave) :    1.2370258048e+01 (    3.09256e+00 /electron)
 V_local (planewave) :   -4.5647489409e+01 (   -1.14119e+01 /electron)
 V_nl    (planewave) :   -1.2422049358e+00 (   -3.10551e-01 /electron)
 V_Coul  (planewave) :    3.5910555280e+01 (    8.97764e+00 /electron)
 V_xc    (planewave) :   -5.4919809978e+00 (   -1.37300e+00 /electron)
 K.S. V_APC energy   :   -8.9371781661e-02 (   -2.97906e-02 /ion)
 Viral Coefficient   :   -1.3315098196e+00

 orbital energy:
    -2.7413340e-01 (  -7.460eV)
    -3.4344283e-01 (  -9.346eV)
    -5.0294515e-01 ( -13.686eV)
    -9.2990962e-01 ( -25.304eV)

== Center of Charge ==

spin up    = (    0.3262    -0.1248    -0.0954 )
spin down  = (    0.3262    -0.1248    -0.0954 )
     total = (    0.3262    -0.1248    -0.0954 )
ionic      = (    0.3413    -0.1454    -0.1935 )

== Molecular Dipole wrt Center of Mass ==

mu   = (    0.1208    -0.1646    -0.7844 ) au
|mu| =      0.8105 au (     2.0601 Debye )


 Ion Forces (au):
   1 O	(    0.01022    0.00409   -0.00359 )
   2 H	(   -0.01200   -0.00845    0.00669 )
   3 H	(    0.00333    0.00251   -0.00139 )



*************************************************************
**                                                         **
**          PSPW Atomic Point Charge (APC) Analysis        **
**                                                         **
**   Point charge analysis based on paper by P.E. Blochl   **
**         (J. Chem. Phys. vol 103, page 7422, 1995)       **
**                                                         **
*************************************************************

 nwpw_APC object
 ---------------
 nga =   3 ngs =     9
 Gc  =   2.50000
 APC gamma: 0 0.60000
 APC gamma: 1 0.90000
 APC gamma: 2 1.35000
 - self-consistent

 APC Potential:
   0.033277730   0.018558691   0.020148449

 APC Point Charges:
  -0.740855684   0.370850189   0.370005495


 charge analysis on each atom
 ----------------------------

      no  atom        Qelc        Qion      Qtotal
   -----  ----     -------     -------     -------
       1    O       -6.741       6.000      -0.741
       2    H       -0.629       1.000       0.371
       3    H       -0.630       1.000       0.370
       Total Q      -8.000       8.000      -0.000


 Gaussian coefficients of model density
 --------------------------------------

      no  atom     g=0.000     g=0.600     g=0.900     g=1.350
   -----  ----     -------     -------     -------     -------
       1     O       6.000      -1.088      -2.073      -3.580
       2     H       1.000      -0.709       0.774      -0.694
       3     H       1.000      -0.724       0.791      -0.697


 output psi to filename: ./nwchemex.movecs

 -----------------
 cputime in seconds
 prologue    : 1.876e-01
 main loop   : 1.500e+01
 epilogue    : 8.115e-02
 total       : 1.527e+01
 cputime/step: 2.143e-01 ( 70 evaluations, 22 linesearches)

 Time spent doing      total        step             percent
 total time            2.124248e+02 3.034640e+00     100.00%
 total FFT time        6.029227e+01 8.613181e-01      28.38%
 lagrange multipliers  2.770001e-02 3.957144e-04       0.01%
 local potentials      1.496944e+00 2.138492e-02       0.70%
 non-local potentials  4.598708e+00 6.569583e-02       2.16%
 ffm_dgemm             9.972296e-01 1.424614e-02       0.47%
 fmf_dgemm             2.112001e+00 3.017144e-02       0.99%
 m_diagonalize         3.129735e-03 4.471050e-05       0.00%
 mmm_multiply          4.250280e-04 6.071829e-06       0.00%
 SCVtrans              1.411684e-03 2.016691e-05       0.00%

 >>> job completed at     Fri Feb 24 15:39:34 2023 <<<
