          *****************************************************
          *                                                   *
          *               PWDFT PSPW Calculation              *
          *                                                   *
          *  [ (Grassmann/Stiefel manifold implementation) ]  *
          *  [              C++ implementation             ]  *
          *                                                   *
          *              version #7.00   02/27/21             *
          *                                                   *
          *    This code was developed by Eric J. Bylaska,    *
          *    Abhishek Bagusetty, David H. Bross, ...        *
          *                                                   *
          *****************************************************
          >>> job started at       Wed Feb  8 15:54:49 2023 <<<

 psp_library: /home/sjplimp/nwchem/PWDFT/Nwpw/libraryps



 initializing nwpw_APC object
 ----------------------------
 nga =   3 ngs =     9
 Gc  =   2.50000
 APC gamma: 0 0.60000
 APC gamma: 1 0.90000
 APC gamma: 2 1.35000
 - not self-consistent

 writing formatted psp filename: ./O.vpp

 writing formatted psp filename: ./H.vpp
 generating random psi from scratch
 Warning - Gram-Schmidt being performed on psi2
         - exact norm = 8.00000 norm=8.86148 corrected norm=8.00000 (error=0.86148)

          ==============  summary of input  ==================

 input psi filename: ./nwchemex.movecs

 number of processors used: 2
 processor grid           : 2 x1
 parallel mapping         : 2d-hcurve
 parallel mapping         : balanced

 options:
   boundary conditions  = periodic
   electron spin        = restricted
   exchange-correlation = PBE96 (White and Bird) parameterization

 elements involved in the cluster:
      1: O   valence charge =  6.0  lmax =2
             comment = Parameterized (Chem.Phys.Lett., vol 322, page 447) Hamman psp 
             pseudopotential type            =  0
             highest angular component       =  2
             local potential used            =  2
             number of non-local projections =  4
             cutoff =    0.700   0.700   0.700
      2: H   valence charge =  1.0  lmax =1
             comment = Parameterized (Chem.Phys.Lett., vol 322, page 447) Hamman psp 
             pseudopotential type            =  0
             highest angular component       =  1
             local potential used            =  1
             number of non-local projections =  1
             cutoff =    0.800   0.800

 total charge =   0.000

 atom composition:
   O : 1   H : 2

 initial ion positions (au):
   1 O	(    0.30530   -0.09999    0.06269 ) - atomic mass = 15.995
   2 H	(    1.51755    0.69756   -0.96690 ) - atomic mass =  1.008
   3 H	(   -0.61524   -1.26531   -0.92324 ) - atomic mass =  1.008
   G.C.	(    0.40254   -0.22258   -0.60915 )
 C.O.M.	(    0.32163   -0.12057   -0.05011 )

 real space Electric field:
     Electric Field (au) = (   0.00000    0.00000    0.00000 )
             Center (au) = (   0.00000    0.00000    0.00000 )


 number of electrons: spin up =     4 (   4 per task) down =     4 (   4 per task)

 supercell:
      volume =   17575.98
      lattice:    a1 = <   26.000    0.000    0.000 >
                  a2 = <    0.000   26.000    0.000 >
                  a3 = <    0.000    0.000   26.000 >
      reciprocal: b1 = <    0.242    0.000    0.000 >
                  b2 = <    0.000    0.242    0.000 >
                  b3 = <    0.000    0.000    0.242 >
      lattice:    a =      26.000 b =     26.000 c =      26.000
                  alpha =  90.000 beta =  90.000 gamma =  90.000
      density cutoff = 20.000 fft =  54 x   54 x   54  (   37447 waves    18724 per task)
      wavefnc cutoff = 10.000 fft =  54 x   54 x   54  (   13373 waves     6687 per task)

 Ewald parameters:
      energy cutoff =  20.000 fft =  54 x   54 x   54  (   37447 waves    18724 per task)
      Ewald summation: cut radius =   8.276 and   1
                       Mandelung Wigner-Seitz =  1.76011888 (alpha =  2.83729748 rs = 16.12910517)

 technical parameters:
      fixed step: time step =        5.80  ficticious mass =   400000.00
      tolerance =   1.000e-09 (energy)    1.000e+00 (density)    1.000e-04 (ion)
      max iterations =       1000 (   10 inner   100 outer)
      minimizer = Grassmann conjugate gradient



     ============ Grassmann conjugate gradient iteration ============
          >>> iteration started at Wed Feb  8 15:54:49 2023  <<<
     iter.                 Energy          DeltaE        DeltaRho
     ----------------------------------------------------------------
        - 10 steepest descent iterations performed
        10      -1.206279801672e+01   -4.150120e-01    1.996397e-03
        20      -1.493506122443e+01   -1.422834e-01    1.506682e-03
        30      -1.540348600009e+01   -2.354360e-02    7.931449e-05
        40      -1.566981091704e+01   -3.162288e-02    2.353093e-04
        50      -1.598278441045e+01   -2.666532e-02    2.366148e-04
        60      -1.616463354121e+01   -1.223350e-02    7.334903e-05
        70      -1.630473193885e+01   -3.266566e-04    2.297099e-06
        80      -1.630526899088e+01   -2.459563e-06    7.181128e-09
        90      -1.630527200045e+01   -1.255258e-08    3.774166e-10
       100      -1.630527202340e+01   -8.822809e-10    1.152800e-11
     *** tolerance ok. iteration terminated
          >>> iteration ended at   Wed Feb  8 15:55:00 2023  <<<

     ==============  energy results (Molecule object)  ==============


 number of electrons: spin up=     4.00000  down=     4.00000 (real space)


 total     energy    :   -1.6305272023e+01 (   -5.43509e+00 /ion)
 total orbital energy:   -4.4098310387e+00 (   -1.10246e+00 /electron)
 hartree energy      :    1.6681756106e+01 (    4.17044e+00 /electron)
 exc-corr energy     :   -4.0100672760e+00 (   -1.00252e+00 /electron)
 ion-ion energy      :    3.5966388474e+00 (    1.19888e+00 /ion)

 kinetic (planewave) :    9.8614028188e+00 (    2.46535e+00 /electron)
 V_local (planewave) :   -4.2645184847e+01 (   -1.06613e+01 /electron)
 V_nl    (planewave) :    2.1018232722e-01 (    5.25456e-02 /electron)
 V_Coul  (planewave) :    3.3363512212e+01 (    8.34088e+00 /electron)
 V_xc    (planewave) :   -5.1997435500e+00 (   -1.29994e+00 /electron)
 Viral Coefficient   :   -1.4471809052e+00

 orbital energy:
    -2.5265267e-01 (  -6.875eV)
    -3.5266167e-01 (  -9.596eV)
    -5.0407048e-01 ( -13.717eV)
    -1.0955307e+00 ( -29.811eV)

== Center of Charge ==

spin up    = (    0.3337    -0.1357    -0.1342 )
spin down  = (    0.3337    -0.1357    -0.1342 )
     total = (    0.3337    -0.1357    -0.1342 )
ionic      = (    0.3418    -0.1460    -0.1893 )

== Molecular Dipole wrt Center of Mass ==

mu   = (    0.0648    -0.0818    -0.4407 ) au
|mu| =      0.4529 au (     1.1511 Debye )


*************************************************************
**                                                         **
**          PSPW Atomic Point Charge (APC) Analysis        **
**                                                         **
**   Point charge analysis based on paper by P.E. Blochl   **
**         (J. Chem. Phys. vol 103, page 7422, 1995)       **
**                                                         **
*************************************************************

 nwpw_APC object
 ---------------
 nga =   3 ngs =     9
 Gc  =   2.50000
 APC gamma: 0 0.60000
 APC gamma: 1 0.90000
 APC gamma: 2 1.35000
 - not self-consistent


 charge analysis on each atom
 ----------------------------

      no  atom        Qelc        Qion      Qtotal
   -----  ----     -------     -------     -------
       1    O       -6.416       6.000      -0.416
       2    H       -0.792       1.000       0.208
       3    H       -0.792       1.000       0.208
       Total Q      -8.000       8.000      -0.000


 Gaussian coefficients of model density
 --------------------------------------

      no  atom     g=0.000     g=0.600     g=0.900     g=1.350
   -----  ----     -------     -------     -------     -------
       1     O       6.000      -0.083      -2.968      -3.365
       2     H       1.000      -0.973       1.287      -1.106
       3     H       1.000      -0.969       1.282      -1.104


 output psi to filename: ./nwchemex.movecs

 -----------------
 cputime in seconds
 prologue    : 7.291e-02
 main loop   : 1.057e+01
 epilogue    : 1.084e-02
 total       : 1.066e+01
 cputime/step: 3.346e-02 ( 316 evaluations, 97 linesearches)

 Time spent doing      total        step             percent
 total time            1.066085e+01 3.373687e-02     100.00%
 total FFT time        5.066369e+00 1.603281e-02      47.52%
 lagrange multipliers  1.207032e-03 3.819722e-06       0.01%
 local potentials      5.150380e-04 1.629867e-06       0.00%
 non-local potentials  2.765415e-01 8.751313e-04       2.59%
 ffm_dgemm             5.013180e-02 1.586449e-04       0.47%
 fmf_dgemm             1.166419e-01 3.691200e-04       1.09%
 m_diagonalize         7.372400e-04 2.333038e-06       0.01%
 mmm_multiply          1.227860e-04 3.885633e-07       0.00%
 SCVtrans              2.681840e-04 8.486835e-07       0.00%

 >>> job completed at     Wed Feb  8 15:55:00 2023 <<<
          *****************************************************
          *                                                   *
          *               PWDFT PSPW Calculation              *
          *                                                   *
          *  [ (Grassmann/Stiefel manifold implementation) ]  *
          *  [              C++ implementation             ]  *
          *                                                   *
          *              version #7.00   02/27/21             *
          *                                                   *
          *    This code was developed by Eric J. Bylaska,    *
          *    Abhishek Bagusetty, David H. Bross, ...        *
          *                                                   *
          *****************************************************
          >>> job started at       Wed Feb  8 15:55:00 2023 <<<

 psp_library: /home/sjplimp/nwchem/PWDFT/Nwpw/libraryps



 initializing nwpw_APC object
 ----------------------------
 nga =   3 ngs =     9
 Gc  =   2.50000
 APC gamma: 0 0.60000
 APC gamma: 1 0.90000
 APC gamma: 2 1.35000
 - not self-consistent

 writing formatted psp filename: ./O.vpp

 writing formatted psp filename: ./H.vpp
 psi grids are being converted: 
 -----------------------------: 
 converting .... psi:1 spin:1
 converting .... psi:2 spin:1
 converting .... psi:3 spin:1
 converting .... psi:4 spin:1

 input psi exists, reading from file: ./nwchemex.movecs

          ==============  summary of input  ==================

 input psi filename: ./nwchemex.movecs

 number of processors used: 2
 processor grid           : 2 x1
 parallel mapping         : 2d-hcurve
 parallel mapping         : balanced

 options:
   boundary conditions  = periodic
   electron spin        = restricted
   exchange-correlation = PBE96 (White and Bird) parameterization

 elements involved in the cluster:
      1: O   valence charge =  6.0  lmax =2
             comment = Parameterized (Chem.Phys.Lett., vol 322, page 447) Hamman psp 
             pseudopotential type            =  0
             highest angular component       =  2
             local potential used            =  2
             number of non-local projections =  4
             cutoff =    0.700   0.700   0.700
      2: H   valence charge =  1.0  lmax =1
             comment = Parameterized (Chem.Phys.Lett., vol 322, page 447) Hamman psp 
             pseudopotential type            =  0
             highest angular component       =  1
             local potential used            =  1
             number of non-local projections =  1
             cutoff =    0.800   0.800

 total charge =   0.000

 atom composition:
   O : 1   H : 2

 initial ion positions (au):
   1 O	(    0.30530   -0.09999    0.06269 ) - atomic mass = 15.995
   2 H	(    1.51755    0.69756   -0.96690 ) - atomic mass =  1.008
   3 H	(   -0.61524   -1.26531   -0.92324 ) - atomic mass =  1.008
   G.C.	(    0.40254   -0.22258   -0.60915 )
 C.O.M.	(    0.32163   -0.12057   -0.05011 )

 real space Electric field:
     Electric Field (au) = (   0.00000    0.00000    0.00000 )
             Center (au) = (   0.00000    0.00000    0.00000 )


 number of electrons: spin up =     4 (   4 per task) down =     4 (   4 per task)

 supercell:
      volume =   17575.98
      lattice:    a1 = <   26.000    0.000    0.000 >
                  a2 = <    0.000   26.000    0.000 >
                  a3 = <    0.000    0.000   26.000 >
      reciprocal: b1 = <    0.242    0.000    0.000 >
                  b2 = <    0.000    0.242    0.000 >
                  b3 = <    0.000    0.000    0.242 >
      lattice:    a =      26.000 b =     26.000 c =      26.000
                  alpha =  90.000 beta =  90.000 gamma =  90.000
      density cutoff = 40.000 fft =  80 x   80 x   80  (  106048 waves    53024 per task)
      wavefnc cutoff = 20.000 fft =  80 x   80 x   80  (   37447 waves    18724 per task)

 Ewald parameters:
      energy cutoff =  40.000 fft =  80 x   80 x   80  (  106048 waves    53024 per task)
      Ewald summation: cut radius =   8.276 and   1
                       Mandelung Wigner-Seitz =  1.76011888 (alpha =  2.83729748 rs = 16.12910517)

 technical parameters:
      fixed step: time step =        5.80  ficticious mass =   400000.00
      tolerance =   1.000e-09 (energy)    1.000e+00 (density)    1.000e-04 (ion)
      max iterations =       1000 (   10 inner   100 outer)
      minimizer = Grassmann conjugate gradient



     ============ Grassmann conjugate gradient iteration ============
          >>> iteration started at Wed Feb  8 15:55:00 2023  <<<
     iter.                 Energy          DeltaE        DeltaRho
     ----------------------------------------------------------------
        - 10 steepest descent iterations performed
        10      -1.709563334317e+01   -6.201449e-04    4.252710e-06
        20      -1.709727702922e+01   -1.395575e-05    2.324062e-07
        30      -1.709728935247e+01   -1.652084e-07    9.382706e-10
        40      -1.709728957157e+01   -1.886704e-09    1.155902e-11
        50      -1.709728957460e+01   -8.623040e-10    2.854954e-12
     *** tolerance ok. iteration terminated
          >>> iteration ended at   Wed Feb  8 15:55:18 2023  <<<

     ==============  energy results (Molecule object)  ==============


 number of electrons: spin up=     4.00000  down=     4.00000 (real space)


 total     energy    :   -1.7097289575e+01 (   -5.69910e+00 /ion)
 total orbital energy:   -4.0996983104e+00 (   -1.02492e+00 /electron)
 hartree energy      :    1.7847984194e+01 (    4.46200e+00 /electron)
 exc-corr energy     :   -4.2204936652e+00 (   -1.05512e+00 /electron)
 ion-ion energy      :    3.5966388474e+00 (    1.19888e+00 /ion)

 kinetic (planewave) :    1.2079256812e+01 (    3.01981e+00 /electron)
 V_local (planewave) :   -4.5359046100e+01 (   -1.13398e+01 /electron)
 V_nl    (planewave) :   -1.0416296625e+00 (   -2.60407e-01 /electron)
 V_Coul  (planewave) :    3.5695968387e+01 (    8.92399e+00 /electron)
 V_xc    (planewave) :   -5.4742477473e+00 (   -1.36856e+00 /electron)
 Viral Coefficient   :   -1.3393998798e+00

 orbital energy:
    -2.6700298e-01 (  -7.266eV)
    -3.3720536e-01 (  -9.176eV)
    -5.0189171e-01 ( -13.657eV)
    -9.4374911e-01 ( -25.681eV)

== Center of Charge ==

spin up    = (    0.3298    -0.1310    -0.1068 )
spin down  = (    0.3298    -0.1310    -0.1068 )
     total = (    0.3298    -0.1310    -0.1068 )
ionic      = (    0.3418    -0.1460    -0.1893 )

== Molecular Dipole wrt Center of Mass ==

mu   = (    0.0958    -0.1200    -0.6599 ) au
|mu| =      0.6776 au (     1.7221 Debye )


*************************************************************
**                                                         **
**          PSPW Atomic Point Charge (APC) Analysis        **
**                                                         **
**   Point charge analysis based on paper by P.E. Blochl   **
**         (J. Chem. Phys. vol 103, page 7422, 1995)       **
**                                                         **
*************************************************************

 nwpw_APC object
 ---------------
 nga =   3 ngs =     9
 Gc  =   2.50000
 APC gamma: 0 0.60000
 APC gamma: 1 0.90000
 APC gamma: 2 1.35000
 - not self-consistent


 charge analysis on each atom
 ----------------------------

      no  atom        Qelc        Qion      Qtotal
   -----  ----     -------     -------     -------
       1    O       -6.631       6.000      -0.631
       2    H       -0.684       1.000       0.316
       3    H       -0.685       1.000       0.315
       Total Q      -8.000       8.000       0.000


 Gaussian coefficients of model density
 --------------------------------------

      no  atom     g=0.000     g=0.600     g=0.900     g=1.350
   -----  ----     -------     -------     -------     -------
       1     O       6.000      -0.775      -2.618      -3.238
       2     H       1.000      -0.768       0.898      -0.814
       3     H       1.000      -0.766       0.895      -0.814


 output psi to filename: ./nwchemex.movecs

 -----------------
 cputime in seconds
 prologue    : 2.074e-01
 main loop   : 1.763e+01
 epilogue    : 3.539e-02
 total       : 1.787e+01
 cputime/step: 1.199e-01 ( 147 evaluations, 43 linesearches)

 Time spent doing      total        step             percent
 total time            2.858502e+01 1.944559e-01     100.00%
 total FFT time        1.375915e+01 9.359967e-02      48.13%
 lagrange multipliers  6.491466e-03 4.415963e-05       0.02%
 local potentials      2.055162e-03 1.398069e-05       0.01%
 non-local potentials  6.565625e-01 4.466411e-03       2.30%
 ffm_dgemm             1.349019e-01 9.177001e-04       0.47%
 fmf_dgemm             2.723509e-01 1.852727e-03       0.95%
 m_diagonalize         1.154672e-03 7.854912e-06       0.00%
 mmm_multiply          1.769340e-04 1.203633e-06       0.00%
 SCVtrans              4.223900e-04 2.873401e-06       0.00%

 >>> job completed at     Wed Feb  8 15:55:18 2023 <<<
          *****************************************************
          *                                                   *
          *               PWDFT PSPW Calculation              *
          *                                                   *
          *  [ (Grassmann/Stiefel manifold implementation) ]  *
          *  [              C++ implementation             ]  *
          *                                                   *
          *              version #7.00   02/27/21             *
          *                                                   *
          *    This code was developed by Eric J. Bylaska,    *
          *    Abhishek Bagusetty, David H. Bross, ...        *
          *                                                   *
          *****************************************************
          >>> job started at       Wed Feb  8 15:55:18 2023 <<<

 psp_library: /home/sjplimp/nwchem/PWDFT/Nwpw/libraryps



 initializing nwpw_APC object
 ----------------------------
 nga =   3 ngs =     9
 Gc  =   2.50000
 APC gamma: 0 0.60000
 APC gamma: 1 0.90000
 APC gamma: 2 1.35000
 APC u:        1         0.03217
 APC u:        2         0.01847
 APC u:        3         0.01917
 - self-consistent

 writing formatted psp filename: ./O.vpp

 writing formatted psp filename: ./H.vpp
 psi grids are being converted: 
 -----------------------------: 
 converting .... psi:1 spin:1
 converting .... psi:2 spin:1
 converting .... psi:3 spin:1
 converting .... psi:4 spin:1

 input psi exists, reading from file: ./nwchemex.movecs

          ==============  summary of input  ==================

 input psi filename: ./nwchemex.movecs

 number of processors used: 2
 processor grid           : 2 x1
 parallel mapping         : 2d-hcurve
 parallel mapping         : balanced

 options:
   boundary conditions  = periodic
   electron spin        = restricted
   exchange-correlation = PBE96 (White and Bird) parameterization

 elements involved in the cluster:
      1: O   valence charge =  6.0  lmax =2
             comment = Parameterized (Chem.Phys.Lett., vol 322, page 447) Hamman psp 
             pseudopotential type            =  0
             highest angular component       =  2
             local potential used            =  2
             number of non-local projections =  4
             cutoff =    0.700   0.700   0.700
      2: H   valence charge =  1.0  lmax =1
             comment = Parameterized (Chem.Phys.Lett., vol 322, page 447) Hamman psp 
             pseudopotential type            =  0
             highest angular component       =  1
             local potential used            =  1
             number of non-local projections =  1
             cutoff =    0.800   0.800

 total charge =   0.000

 atom composition:
   O : 1   H : 2

 initial ion positions (au):
   1 O	(    0.30530   -0.09999    0.06269 ) - atomic mass = 15.995
   2 H	(    1.51755    0.69756   -0.96690 ) - atomic mass =  1.008
   3 H	(   -0.61524   -1.26531   -0.92324 ) - atomic mass =  1.008
   G.C.	(    0.40254   -0.22258   -0.60915 )
 C.O.M.	(    0.32163   -0.12057   -0.05011 )

 real space Electric field:
     Electric Field (au) = (   0.00000    0.00000    0.00000 )
             Center (au) = (   0.00000    0.00000    0.00000 )


 number of electrons: spin up =     4 (   4 per task) down =     4 (   4 per task)

 supercell:
      volume =   17575.98
      lattice:    a1 = <   26.000    0.000    0.000 >
                  a2 = <    0.000   26.000    0.000 >
                  a3 = <    0.000    0.000   26.000 >
      reciprocal: b1 = <    0.242    0.000    0.000 >
                  b2 = <    0.000    0.242    0.000 >
                  b3 = <    0.000    0.000    0.242 >
      lattice:    a =      26.000 b =     26.000 c =      26.000
                  alpha =  90.000 beta =  90.000 gamma =  90.000
      density cutoff = 60.000 fft =  96 x   96 x   96  (  195216 waves    97608 per task)
      wavefnc cutoff = 30.000 fft =  96 x   96 x   96  (   69013 waves    34507 per task)

 Ewald parameters:
      energy cutoff =  60.000 fft =  96 x   96 x   96  (  195216 waves    97608 per task)
      Ewald summation: cut radius =   8.276 and   1
                       Mandelung Wigner-Seitz =  1.76011888 (alpha =  2.83729748 rs = 16.12910517)

 technical parameters:
      fixed step: time step =        5.80  ficticious mass =   400000.00
      tolerance =   1.000e-09 (energy)    1.000e+00 (density)    1.000e-04 (ion)
      max iterations =       1000 (   10 inner   100 outer)
      minimizer = Grassmann conjugate gradient



     ============ Grassmann conjugate gradient iteration ============
          >>> iteration started at Wed Feb  8 15:55:18 2023  <<<
     iter.                 Energy          DeltaE        DeltaRho
     ----------------------------------------------------------------
        - 10 steepest descent iterations performed
        10      -1.719854750852e+01   -5.739065e-05    1.086836e-06
        20      -1.719866697103e+01   -1.561354e-06    7.029039e-08
        30      -1.719867013369e+01   -4.633701e-08    1.534758e-10
        40      -1.719867027116e+01   -2.334723e-09    4.231094e-11
        50      -1.719867027638e+01   -8.356409e-10    1.415681e-11
     *** tolerance ok. iteration terminated
          >>> iteration ended at   Wed Feb  8 15:55:57 2023  <<<

     ==============  energy results (Molecule object)  ==============


 number of electrons: spin up=     4.00000  down=     4.00000 (real space)


 APC Potential:
   0.032168321   0.018471985   0.019170642

 APC Point Charges:
  -0.742599484   0.372218634   0.370380850


 total     energy    :   -1.7198670276e+01 (   -5.73289e+00 /ion)
 total orbital energy:   -4.1186005525e+00 (   -1.02965e+00 /electron)
 hartree energy      :    1.8012763373e+01 (    4.50319e+00 /electron)
 exc-corr energy     :   -4.2447731089e+00 (   -1.06119e+00 /electron)
 APC energy          :   -9.9121231898e-03 (   -3.30404e-03 /ion)
 ion-ion energy      :    3.5966383352e+00 (    1.19888e+00 /ion)

 kinetic (planewave) :    1.2411600602e+01 (    3.10290e+00 /electron)
 V_local (planewave) :   -4.5793468975e+01 (   -1.14484e+01 /electron)
 V_nl    (planewave) :   -1.2574819137e+00 (   -3.14370e-01 /electron)
 V_Coul  (planewave) :    3.6025526747e+01 (    9.00638e+00 /electron)
 V_xc    (planewave) :   -5.5047770128e+00 (   -1.37619e+00 /electron)
 K.S. V_APC energy   :   -8.5963533404e-02 (   -2.86545e-02 /ion)
 Viral Coefficient   :   -1.3318347637e+00

 orbital energy:
    -2.7467794e-01 (  -7.474eV)
    -3.4392861e-01 (  -9.359eV)
    -5.0664632e-01 ( -13.787eV)
    -9.3404742e-01 ( -25.417eV)

== Center of Charge ==

spin up    = (    0.3274    -0.1283    -0.0913 )
spin down  = (    0.3274    -0.1283    -0.0913 )
     total = (    0.3274    -0.1283    -0.0913 )
ionic      = (    0.3418    -0.1460    -0.1893 )

== Molecular Dipole wrt Center of Mass ==

mu   = (    0.1153    -0.1410    -0.7838 ) au
|mu| =      0.8046 au (     2.0451 Debye )


 Ion Forces (au):
   1 O	(    0.00014   -0.00159    0.00561 )
   2 H	(   -0.00082   -0.00158   -0.00230 )
   3 H	(    0.00231    0.00170   -0.00152 )



*************************************************************
**                                                         **
**          PSPW Atomic Point Charge (APC) Analysis        **
**                                                         **
**   Point charge analysis based on paper by P.E. Blochl   **
**         (J. Chem. Phys. vol 103, page 7422, 1995)       **
**                                                         **
*************************************************************

 nwpw_APC object
 ---------------
 nga =   3 ngs =     9
 Gc  =   2.50000
 APC gamma: 0 0.60000
 APC gamma: 1 0.90000
 APC gamma: 2 1.35000
 - self-consistent

 APC Potential:
   0.032168321   0.018471985   0.019170642

 APC Point Charges:
  -0.742599484   0.372218634   0.370380850


 charge analysis on each atom
 ----------------------------

      no  atom        Qelc        Qion      Qtotal
   -----  ----     -------     -------     -------
       1    O       -6.743       6.000      -0.743
       2    H       -0.628       1.000       0.372
       3    H       -0.630       1.000       0.370
       Total Q      -8.000       8.000       0.000


 Gaussian coefficients of model density
 --------------------------------------

      no  atom     g=0.000     g=0.600     g=0.900     g=1.350
   -----  ----     -------     -------     -------     -------
       1     O       6.000      -1.097      -2.076      -3.569
       2     H       1.000      -0.718       0.776      -0.685
       3     H       1.000      -0.718       0.778      -0.690


 output psi to filename: ./nwchemex.movecs

 -----------------
 cputime in seconds
 prologue    : 3.216e-01
 main loop   : 3.835e+01
 epilogue    : 9.508e-02
 total       : 3.877e+01
 cputime/step: 2.591e-01 ( 148 evaluations, 44 linesearches)

 Time spent doing      total        step             percent
 total time            6.740602e+01 4.554461e-01     100.00%
 total FFT time        3.190519e+01 2.155756e-01      47.33%
 lagrange multipliers  1.727143e-02 1.166989e-04       0.03%
 local potentials      2.936396e-01 1.984052e-03       0.44%
 non-local potentials  1.386601e+00 9.368929e-03       2.06%
 ffm_dgemm             3.163677e-01 2.137620e-03       0.47%
 fmf_dgemm             6.150113e-01 4.155482e-03       0.91%
 m_diagonalize         1.663961e-03 1.124298e-05       0.00%
 mmm_multiply          2.607770e-04 1.762007e-06       0.00%
 SCVtrans              6.144560e-04 4.151730e-06       0.00%

 >>> job completed at     Wed Feb  8 15:55:57 2023 <<<
          *****************************************************
          *                                                   *
          *               PWDFT PSPW Calculation              *
          *                                                   *
          *  [ (Grassmann/Stiefel manifold implementation) ]  *
          *  [              C++ implementation             ]  *
          *                                                   *
          *              version #7.00   02/27/21             *
          *                                                   *
          *    This code was developed by Eric J. Bylaska,    *
          *    Abhishek Bagusetty, David H. Bross, ...        *
          *                                                   *
          *****************************************************
          >>> job started at       Wed Feb  8 15:55:57 2023 <<<

 psp_library: /home/sjplimp/nwchem/PWDFT/Nwpw/libraryps



 initializing nwpw_APC object
 ----------------------------
 nga =   3 ngs =     9
 Gc  =   2.50000
 APC gamma: 0 0.60000
 APC gamma: 1 0.90000
 APC gamma: 2 1.35000
 APC u:        1         0.03217
 APC u:        2         0.01848
 APC u:        3         0.01917
 - self-consistent

 reading formatted psp filename: ./O.vpp

 reading formatted psp filename: ./H.vpp
 input psi exists, reading from file: ./nwchemex.movecs

          ==============  summary of input  ==================

 input psi filename: ./nwchemex.movecs

 number of processors used: 2
 processor grid           : 2 x1
 parallel mapping         : 2d-hcurve
 parallel mapping         : balanced

 options:
   boundary conditions  = periodic
   electron spin        = restricted
   exchange-correlation = PBE96 (White and Bird) parameterization

 elements involved in the cluster:
      1: O   valence charge =  6.0  lmax =2
             comment = Parameterized (Chem.Phys.Lett., vol 322, page 447) Hamman psp 
             pseudopotential type            =  0
             highest angular component       =  2
             local potential used            =  2
             number of non-local projections =  4
             cutoff =    0.700   0.700   0.700
      2: H   valence charge =  1.0  lmax =1
             comment = Parameterized (Chem.Phys.Lett., vol 322, page 447) Hamman psp 
             pseudopotential type            =  0
             highest angular component       =  1
             local potential used            =  1
             number of non-local projections =  1
             cutoff =    0.800   0.800

 total charge =   0.000

 atom composition:
   O : 1   H : 2

 initial ion positions (au):
   1 O	(    0.30530   -0.09999    0.06269 ) - atomic mass = 15.995
   2 H	(    1.51755    0.69755   -0.96692 ) - atomic mass =  1.008
   3 H	(   -0.61523   -1.26531   -0.92326 ) - atomic mass =  1.008
   G.C.	(    0.40254   -0.22258   -0.60916 )
 C.O.M.	(    0.32163   -0.12057   -0.05011 )

 real space Electric field:
     Electric Field (au) = (   0.00000    0.00000    0.00000 )
             Center (au) = (   0.00000    0.00000    0.00000 )


 number of electrons: spin up =     4 (   4 per task) down =     4 (   4 per task)

 supercell:
      volume =   17575.98
      lattice:    a1 = <   26.000    0.000    0.000 >
                  a2 = <    0.000   26.000    0.000 >
                  a3 = <    0.000    0.000   26.000 >
      reciprocal: b1 = <    0.242    0.000    0.000 >
                  b2 = <    0.000    0.242    0.000 >
                  b3 = <    0.000    0.000    0.242 >
      lattice:    a =      26.000 b =     26.000 c =      26.000
                  alpha =  90.000 beta =  90.000 gamma =  90.000
      density cutoff = 60.000 fft =  96 x   96 x   96  (  195216 waves    97608 per task)
      wavefnc cutoff = 30.000 fft =  96 x   96 x   96  (   69013 waves    34507 per task)

 Ewald parameters:
      energy cutoff =  60.000 fft =  96 x   96 x   96  (  195216 waves    97608 per task)
      Ewald summation: cut radius =   8.276 and   1
                       Mandelung Wigner-Seitz =  1.76011888 (alpha =  2.83729748 rs = 16.12910517)

 technical parameters:
      fixed step: time step =        5.80  ficticious mass =   400000.00
      tolerance =   1.000e-09 (energy)    1.000e+00 (density)    1.000e-04 (ion)
      max iterations =       1000 (   10 inner   100 outer)
      minimizer = Grassmann conjugate gradient



     ============ Grassmann conjugate gradient iteration ============
          >>> iteration started at Wed Feb  8 15:55:57 2023  <<<
     iter.                 Energy          DeltaE        DeltaRho
     ----------------------------------------------------------------
        10      -1.719867286753e+01   -6.816379e-10    2.321485e-11
     *** tolerance ok. iteration terminated
          >>> iteration ended at   Wed Feb  8 15:55:58 2023  <<<

     ==============  energy results (Molecule object)  ==============


 number of electrons: spin up=     4.00000  down=     4.00000 (real space)


 APC Potential:
   0.032174976   0.018475289   0.019174010

 APC Point Charges:
  -0.742603988   0.372221498   0.370382490


 total     energy    :   -1.7198672868e+01 (   -5.73289e+00 /ion)
 total orbital energy:   -4.1185877728e+00 (   -1.02965e+00 /electron)
 hartree energy      :    1.8012764978e+01 (    4.50319e+00 /electron)
 exc-corr energy     :   -4.2447737993e+00 (   -1.06119e+00 /electron)
 APC energy          :   -9.9146481391e-03 (   -3.30488e-03 /ion)
 ion-ion energy      :    3.5966070435e+00 (    1.19887e+00 /ion)

 kinetic (planewave) :    1.2411604235e+01 (    3.10290e+00 /electron)
 V_local (planewave) :   -4.5793466800e+01 (   -1.14484e+01 /electron)
 V_nl    (planewave) :   -1.2574773464e+00 (   -3.14369e-01 /electron)
 V_Coul  (planewave) :    3.6025529957e+01 (    9.00638e+00 /electron)
 V_xc    (planewave) :   -5.5047778183e+00 (   -1.37619e+00 /electron)
 K.S. V_APC energy   :   -8.5983469375e-02 (   -2.86612e-02 /ion)
 Viral Coefficient   :   -1.3318336369e+00

 orbital energy:
    -2.7467727e-01 (  -7.474eV)
    -3.4393166e-01 (  -9.359eV)
    -5.0664047e-01 ( -13.786eV)
    -9.3404449e-01 ( -25.417eV)

== Center of Charge ==

spin up    = (    0.3274    -0.1283    -0.0913 )
spin down  = (    0.3274    -0.1283    -0.0913 )
     total = (    0.3274    -0.1283    -0.0913 )
ionic      = (    0.3418    -0.1460    -0.1893 )

== Molecular Dipole wrt Center of Mass ==

mu   = (    0.1153    -0.1410    -0.7838 ) au
|mu| =      0.8047 au (     2.0451 Debye )


 Ion Forces (au):
   1 O	(    0.00016   -0.00158    0.00552 )
   2 H	(   -0.00083   -0.00158   -0.00229 )
   3 H	(    0.00230    0.00170   -0.00151 )



*************************************************************
**                                                         **
**          PSPW Atomic Point Charge (APC) Analysis        **
**                                                         **
**   Point charge analysis based on paper by P.E. Blochl   **
**         (J. Chem. Phys. vol 103, page 7422, 1995)       **
**                                                         **
*************************************************************

 nwpw_APC object
 ---------------
 nga =   3 ngs =     9
 Gc  =   2.50000
 APC gamma: 0 0.60000
 APC gamma: 1 0.90000
 APC gamma: 2 1.35000
 - self-consistent

 APC Potential:
   0.032174976   0.018475289   0.019174010

 APC Point Charges:
  -0.742603988   0.372221498   0.370382490


 charge analysis on each atom
 ----------------------------

      no  atom        Qelc        Qion      Qtotal
   -----  ----     -------     -------     -------
       1    O       -6.743       6.000      -0.743
       2    H       -0.628       1.000       0.372
       3    H       -0.630       1.000       0.370
       Total Q      -8.000       8.000      -0.000


 Gaussian coefficients of model density
 --------------------------------------

      no  atom     g=0.000     g=0.600     g=0.900     g=1.350
   -----  ----     -------     -------     -------     -------
       1     O       6.000      -1.098      -2.076      -3.570
       2     H       1.000      -0.718       0.776      -0.685
       3     H       1.000      -0.718       0.778      -0.689


 output psi to filename: ./nwchemex.movecs

 -----------------
 cputime in seconds
 prologue    : 2.149e-01
 main loop   : 1.028e+00
 epilogue    : 9.464e-02
 total       : 1.337e+00
 cputime/step: 2.569e-01 ( 4 evaluations, 1 linesearches)

 Time spent doing      total        step             percent
 total time            6.878885e+01 1.719721e+01     100.00%
 total FFT time        3.238041e+01 8.095101e+00      47.07%
 lagrange multipliers  1.727143e-02 4.317858e-03       0.03%
 local potentials      3.068390e-01 7.670976e-02       0.45%
 non-local potentials  1.418119e+00 3.545298e-01       2.06%
 ffm_dgemm             3.211811e-01 8.029528e-02       0.47%
 fmf_dgemm             6.225149e-01 1.556287e-01       0.90%
 m_diagonalize         1.687134e-03 4.217835e-04       0.00%
 mmm_multiply          2.625470e-04 6.563675e-05       0.00%
 SCVtrans              6.195720e-04 1.548930e-04       0.00%

 >>> job completed at     Wed Feb  8 15:55:58 2023 <<<
          *****************************************************
          *                                                   *
          *               PWDFT PSPW Calculation              *
          *                                                   *
          *  [ (Grassmann/Stiefel manifold implementation) ]  *
          *  [              C++ implementation             ]  *
          *                                                   *
          *              version #7.00   02/27/21             *
          *                                                   *
          *    This code was developed by Eric J. Bylaska,    *
          *    Abhishek Bagusetty, David H. Bross, ...        *
          *                                                   *
          *****************************************************
          >>> job started at       Wed Feb  8 15:55:58 2023 <<<

 psp_library: /home/sjplimp/nwchem/PWDFT/Nwpw/libraryps



 initializing nwpw_APC object
 ----------------------------
 nga =   3 ngs =     9
 Gc  =   2.50000
 APC gamma: 0 0.60000
 APC gamma: 1 0.90000
 APC gamma: 2 1.35000
 APC u:        1         0.03219
 APC u:        2         0.01849
 APC u:        3         0.01918
 - self-consistent

 reading formatted psp filename: ./O.vpp

 reading formatted psp filename: ./H.vpp
 input psi exists, reading from file: ./nwchemex.movecs

          ==============  summary of input  ==================

 input psi filename: ./nwchemex.movecs

 number of processors used: 2
 processor grid           : 2 x1
 parallel mapping         : 2d-hcurve
 parallel mapping         : balanced

 options:
   boundary conditions  = periodic
   electron spin        = restricted
   exchange-correlation = PBE96 (White and Bird) parameterization

 elements involved in the cluster:
      1: O   valence charge =  6.0  lmax =2
             comment = Parameterized (Chem.Phys.Lett., vol 322, page 447) Hamman psp 
             pseudopotential type            =  0
             highest angular component       =  2
             local potential used            =  2
             number of non-local projections =  4
             cutoff =    0.700   0.700   0.700
      2: H   valence charge =  1.0  lmax =1
             comment = Parameterized (Chem.Phys.Lett., vol 322, page 447) Hamman psp 
             pseudopotential type            =  0
             highest angular component       =  1
             local potential used            =  1
             number of non-local projections =  1
             cutoff =    0.800   0.800

 total charge =   0.000

 atom composition:
   O : 1   H : 2

 initial ion positions (au):
   1 O	(    0.30530   -0.09999    0.06270 ) - atomic mass = 15.995
   2 H	(    1.51756    0.69753   -0.96698 ) - atomic mass =  1.008
   3 H	(   -0.61520   -1.26530   -0.92331 ) - atomic mass =  1.008
   G.C.	(    0.40256   -0.22259   -0.60920 )
 C.O.M.	(    0.32163   -0.12057   -0.05011 )

 real space Electric field:
     Electric Field (au) = (   0.00000    0.00000    0.00000 )
             Center (au) = (   0.00000    0.00000    0.00000 )


 number of electrons: spin up =     4 (   4 per task) down =     4 (   4 per task)

 supercell:
      volume =   17575.98
      lattice:    a1 = <   26.000    0.000    0.000 >
                  a2 = <    0.000   26.000    0.000 >
                  a3 = <    0.000    0.000   26.000 >
      reciprocal: b1 = <    0.242    0.000    0.000 >
                  b2 = <    0.000    0.242    0.000 >
                  b3 = <    0.000    0.000    0.242 >
      lattice:    a =      26.000 b =     26.000 c =      26.000
                  alpha =  90.000 beta =  90.000 gamma =  90.000
      density cutoff = 60.000 fft =  96 x   96 x   96  (  195216 waves    97608 per task)
      wavefnc cutoff = 30.000 fft =  96 x   96 x   96  (   69013 waves    34507 per task)

 Ewald parameters:
      energy cutoff =  60.000 fft =  96 x   96 x   96  (  195216 waves    97608 per task)
      Ewald summation: cut radius =   8.276 and   1
                       Mandelung Wigner-Seitz =  1.76011888 (alpha =  2.83729748 rs = 16.12910517)

 technical parameters:
      fixed step: time step =        5.80  ficticious mass =   400000.00
      tolerance =   1.000e-09 (energy)    1.000e+00 (density)    1.000e-04 (ion)
      max iterations =       1000 (   10 inner   100 outer)
      minimizer = Grassmann conjugate gradient



     ============ Grassmann conjugate gradient iteration ============
          >>> iteration started at Wed Feb  8 15:55:58 2023  <<<
     iter.                 Energy          DeltaE        DeltaRho
     ----------------------------------------------------------------
        10      -1.719868062972e+01   -9.415189e-10    5.922185e-11
     *** tolerance ok. iteration terminated
          >>> iteration ended at   Wed Feb  8 15:56:01 2023  <<<

     ==============  energy results (Molecule object)  ==============


 number of electrons: spin up=     4.00000  down=     4.00000 (real space)


 APC Potential:
   0.032194911   0.018485184   0.019184100

 APC Point Charges:
  -0.742638640   0.372241291   0.370397350


 total     energy    :   -1.7198680630e+01 (   -5.73289e+00 /ion)
 total orbital energy:   -4.1185937829e+00 (   -1.02965e+00 /electron)
 hartree energy      :    1.8012723256e+01 (    4.50318e+00 /electron)
 exc-corr energy     :   -4.2447666970e+00 (   -1.06119e+00 /electron)
 APC energy          :   -9.9224962693e-03 (   -3.30750e-03 /ion)
 ion-ion energy      :    3.5965135890e+00 (    1.19884e+00 /ion)

 kinetic (planewave) :    1.2411587836e+01 (    3.10290e+00 /electron)
 V_local (planewave) :   -4.5793387800e+01 (   -1.14483e+01 /electron)
 V_nl    (planewave) :   -1.2574717977e+00 (   -3.14368e-01 /electron)
 V_Coul  (planewave) :    3.6025446511e+01 (    9.00636e+00 /electron)
 V_xc    (planewave) :   -5.5047685322e+00 (   -1.37619e+00 /electron)
 K.S. V_APC energy   :   -8.6043480840e-02 (   -2.86812e-02 /ion)
 Viral Coefficient   :   -1.3318345596e+00

 orbital energy:
    -2.7468030e-01 (  -7.474eV)
    -3.4394195e-01 (  -9.359eV)
    -5.0663062e-01 ( -13.786eV)
    -9.3404403e-01 ( -25.417eV)

== Center of Charge ==

spin up    = (    0.3274    -0.1283    -0.0913 )
spin down  = (    0.3274    -0.1283    -0.0913 )
     total = (    0.3274    -0.1283    -0.0913 )
ionic      = (    0.3418    -0.1460    -0.1893 )

== Molecular Dipole wrt Center of Mass ==

mu   = (    0.1153    -0.1410    -0.7839 ) au
|mu| =      0.8048 au (     2.0454 Debye )


 Ion Forces (au):
   1 O	(    0.00015   -0.00159    0.00561 )
   2 H	(   -0.00084   -0.00158   -0.00227 )
   3 H	(    0.00230    0.00170   -0.00150 )



*************************************************************
**                                                         **
**          PSPW Atomic Point Charge (APC) Analysis        **
**                                                         **
**   Point charge analysis based on paper by P.E. Blochl   **
**         (J. Chem. Phys. vol 103, page 7422, 1995)       **
**                                                         **
*************************************************************

 nwpw_APC object
 ---------------
 nga =   3 ngs =     9
 Gc  =   2.50000
 APC gamma: 0 0.60000
 APC gamma: 1 0.90000
 APC gamma: 2 1.35000
 - self-consistent

 APC Potential:
   0.032194911   0.018485184   0.019184100

 APC Point Charges:
  -0.742638640   0.372241291   0.370397350


 charge analysis on each atom
 ----------------------------

      no  atom        Qelc        Qion      Qtotal
   -----  ----     -------     -------     -------
       1    O       -6.743       6.000      -0.743
       2    H       -0.628       1.000       0.372
       3    H       -0.630       1.000       0.370
       Total Q      -8.000       8.000      -0.000


 Gaussian coefficients of model density
 --------------------------------------

      no  atom     g=0.000     g=0.600     g=0.900     g=1.350
   -----  ----     -------     -------     -------     -------
       1     O       6.000      -1.098      -2.075      -3.570
       2     H       1.000      -0.718       0.776      -0.685
       3     H       1.000      -0.718       0.778      -0.689


 output psi to filename: ./nwchemex.movecs

 -----------------
 cputime in seconds
 prologue    : 2.176e-01
 main loop   : 2.646e+00
 epilogue    : 9.532e-02
 total       : 2.959e+00
 cputime/step: 2.646e-01 ( 10 evaluations, 3 linesearches)

 Time spent doing      total        step             percent
 total time            7.177175e+01 7.177175e+00     100.00%
 total FFT time        3.363024e+01 3.363024e+00      46.86%
 lagrange multipliers  1.727143e-02 1.727143e-03       0.02%
 local potentials      3.324130e-01 3.324130e-02       0.46%
 non-local potentials  1.479193e+00 1.479193e-01       2.06%
 ffm_dgemm             3.339040e-01 3.339040e-02       0.47%
 fmf_dgemm             6.453409e-01 6.453409e-02       0.90%
 m_diagonalize         1.741743e-03 1.741743e-04       0.00%
 mmm_multiply          2.680150e-04 2.680150e-05       0.00%
 SCVtrans              6.333120e-04 6.333120e-05       0.00%

 >>> job completed at     Wed Feb  8 15:56:01 2023 <<<
