          *****************************************************
          *                                                   *
          *               PWDFT PSPW Calculation              *
          *                                                   *
          *  [ (Grassmann/Stiefel manifold implementation) ]  *
          *  [              C++ implementation             ]  *
          *                                                   *
          *              version #7.00   02/27/21             *
          *                                                   *
          *    This code was developed by Eric J. Bylaska,    *
          *    Abhishek Bagusetty, David H. Bross, ...        *
          *                                                   *
          *****************************************************
          >>> job started at       Mon Feb 20 12:59:15 2023 <<<

 psp_library: /home/sjplimp/nwchem/PWDFT/Nwpw/libraryps



 initializing nwpw_APC object
 ----------------------------
 nga =   3 ngs =     9
 Gc  =   2.50000
 APC gamma: 0 0.60000
 APC gamma: 1 0.90000
 APC gamma: 2 1.35000
 - not self-consistent

 writing formatted psp filename: ./O.vpp

 writing formatted psp filename: ./H.vpp
 generating random psi from scratch
 Warning - Gram-Schmidt being performed on psi2
         - exact norm = 8.00000 norm=8.87324 corrected norm=8.00000 (error=0.87324)

          ==============  summary of input  ==================

 input psi filename: ./nwchemex.movecs

 number of processors used: 2
 processor grid           : 2 x1
 parallel mapping         : 2d-hcurve
 parallel mapping         : balanced

 options:
   boundary conditions  = periodic
   electron spin        = restricted
   exchange-correlation = PBE96 (White and Bird) parameterization

 elements involved in the cluster:
      1: O   valence charge =  6.0  lmax =2
             comment = Parameterized (Chem.Phys.Lett., vol 322, page 447) Hamman psp 
             pseudopotential type            =  0
             highest angular component       =  2
             local potential used            =  2
             number of non-local projections =  4
             cutoff =    0.700   0.700   0.700
      2: H   valence charge =  1.0  lmax =1
             comment = Parameterized (Chem.Phys.Lett., vol 322, page 447) Hamman psp 
             pseudopotential type            =  0
             highest angular component       =  1
             local potential used            =  1
             number of non-local projections =  1
             cutoff =    0.800   0.800

 total charge =   0.000

 atom composition:
   O : 1   H : 2

 initial ion positions (au):
   1 O	(    0.30530   -0.09999    0.06269 ) - atomic mass = 15.995
   2 H	(    1.51755    0.69756   -0.96690 ) - atomic mass =  1.008
   3 H	(   -0.61524   -1.26531   -0.92324 ) - atomic mass =  1.008
   G.C.	(    0.40254   -0.22258   -0.60915 )
 C.O.M.	(    0.32163   -0.12057   -0.05011 )

 real space Electric field:
     Electric Field (au) = (   0.00000    0.00000    0.00000 )
             Center (au) = (   0.00000    0.00000    0.00000 )


 number of electrons: spin up =     4 (   4 per task) down =     4 (   4 per task)

 supercell:
      volume =   17575.98
      lattice:    a1 = <   26.000    0.000    0.000 >
                  a2 = <    0.000   26.000    0.000 >
                  a3 = <    0.000    0.000   26.000 >
      reciprocal: b1 = <    0.242    0.000    0.000 >
                  b2 = <    0.000    0.242    0.000 >
                  b3 = <    0.000    0.000    0.242 >
      lattice:    a =      26.000 b =     26.000 c =      26.000
                  alpha =  90.000 beta =  90.000 gamma =  90.000
      density cutoff = 20.000 fft =  54 x   54 x   54  (   37447 waves    18724 per task)
      wavefnc cutoff = 10.000 fft =  54 x   54 x   54  (   13373 waves     6687 per task)

 Ewald parameters:
      energy cutoff =  20.000 fft =  54 x   54 x   54  (   37447 waves    18724 per task)
      Ewald summation: cut radius =   8.276 and   1
                       Mandelung Wigner-Seitz =  1.76011888 (alpha =  2.83729748 rs = 16.12910517)

 technical parameters:
      fixed step: time step =        5.80  ficticious mass =   400000.00
      tolerance =   1.000e-09 (energy)    1.000e+00 (density)    1.000e-04 (ion)
      max iterations =       1000 (   10 inner   100 outer)
      minimizer = Grassmann conjugate gradient



     ============ Grassmann conjugate gradient iteration ============
          >>> iteration started at Mon Feb 20 12:59:15 2023  <<<
     iter.                 Energy          DeltaE        DeltaRho
     ----------------------------------------------------------------
        - 10 steepest descent iterations performed
        10      -1.282472121153e+01   -9.484109e-01    1.779210e-02
        20      -1.504837267799e+01   -5.497331e-02    3.093676e-04
        30      -1.573162576628e+01   -7.462479e-02    7.497296e-04
        40      -1.613937990909e+01   -1.991498e-02    1.005273e-04
        50      -1.630233932354e+01   -1.501744e-03    1.758004e-04
        60      -1.630525628588e+01   -1.357997e-05    9.037538e-08
        70      -1.630527187384e+01   -6.875135e-08    2.522005e-09
        80      -1.630527202279e+01   -1.101618e-09    1.194409e-11
        90      -1.630527202341e+01   -6.239418e-10    5.440727e-12
     *** tolerance ok. iteration terminated
          >>> iteration ended at   Mon Feb 20 12:59:23 2023  <<<

     ==============  energy results (Molecule object)  ==============


 number of electrons: spin up=     4.00000  down=     4.00000 (real space)


 total     energy    :   -1.6305272023e+01 (   -5.43509e+00 /ion)
 total orbital energy:   -4.4097831376e+00 (   -1.10245e+00 /electron)
 hartree energy      :    1.6681806876e+01 (    4.17045e+00 /electron)
 exc-corr energy     :   -4.0100766866e+00 (   -1.00252e+00 /electron)
 ion-ion energy      :    3.5966388474e+00 (    1.19888e+00 /ion)

 kinetic (planewave) :    9.8614439976e+00 (    2.46536e+00 /electron)
 V_local (planewave) :   -4.2645265326e+01 (   -1.06613e+01 /electron)
 V_nl    (planewave) :    2.1018026777e-01 (    5.25451e-02 /electron)
 V_Coul  (planewave) :    3.3363613752e+01 (    8.34090e+00 /electron)
 V_xc    (planewave) :   -5.1997558296e+00 (   -1.29994e+00 /electron)
 Viral Coefficient   :   -1.4471741804e+00

 orbital energy:
    -2.5264682e-01 (  -6.875eV)
    -3.5265599e-01 (  -9.596eV)
    -5.0406540e-01 ( -13.716eV)
    -1.0955234e+00 ( -29.811eV)

== Center of Charge ==

spin up    = (    0.3337    -0.1357    -0.1342 )
spin down  = (    0.3337    -0.1357    -0.1342 )
     total = (    0.3337    -0.1357    -0.1342 )
ionic      = (    0.3418    -0.1460    -0.1893 )

== Molecular Dipole wrt Center of Mass ==

mu   = (    0.0649    -0.0819    -0.4407 ) au
|mu| =      0.4529 au (     1.1511 Debye )


*************************************************************
**                                                         **
**          PSPW Atomic Point Charge (APC) Analysis        **
**                                                         **
**   Point charge analysis based on paper by P.E. Blochl   **
**         (J. Chem. Phys. vol 103, page 7422, 1995)       **
**                                                         **
*************************************************************

 nwpw_APC object
 ---------------
 nga =   3 ngs =     9
 Gc  =   2.50000
 APC gamma: 0 0.60000
 APC gamma: 1 0.90000
 APC gamma: 2 1.35000
 - not self-consistent


 charge analysis on each atom
 ----------------------------

      no  atom        Qelc        Qion      Qtotal
   -----  ----     -------     -------     -------
       1    O       -6.416       6.000      -0.416
       2    H       -0.792       1.000       0.208
       3    H       -0.792       1.000       0.208
       Total Q      -8.000       8.000       0.000


 Gaussian coefficients of model density
 --------------------------------------

      no  atom     g=0.000     g=0.600     g=0.900     g=1.350
   -----  ----     -------     -------     -------     -------
       1     O       6.000      -0.083      -2.968      -3.365
       2     H       1.000      -0.973       1.287      -1.106
       3     H       1.000      -0.969       1.282      -1.104


 output psi to filename: ./nwchemex.movecs

 -----------------
 cputime in seconds
 prologue    : 6.541e-02
 main loop   : 7.598e+00
 epilogue    : 9.369e-03
 total       : 7.673e+00
 cputime/step: 2.846e-02 ( 267 evaluations, 81 linesearches)

 Time spent doing      total        step             percent
 total time            7.677869e+00 2.875606e-02     100.00%
 total FFT time        2.887458e+00 1.081445e-02      37.61%
 lagrange multipliers  2.396212e-03 8.974577e-06       0.03%
 local potentials      4.929980e-04 1.846434e-06       0.01%
 non-local potentials  2.540346e-01 9.514405e-04       3.31%
 ffm_dgemm             8.381994e-02 3.139324e-04       1.09%
 fmf_dgemm             8.565055e-02 3.207886e-04       1.12%
 m_diagonalize         5.784450e-04 2.166461e-06       0.01%
 mmm_multiply          5.265100e-05 1.971948e-07       0.00%
 SCVtrans              2.165860e-04 8.111835e-07       0.00%

 >>> job completed at     Mon Feb 20 12:59:23 2023 <<<
          *****************************************************
          *                                                   *
          *               PWDFT PSPW Calculation              *
          *                                                   *
          *  [ (Grassmann/Stiefel manifold implementation) ]  *
          *  [              C++ implementation             ]  *
          *                                                   *
          *              version #7.00   02/27/21             *
          *                                                   *
          *    This code was developed by Eric J. Bylaska,    *
          *    Abhishek Bagusetty, David H. Bross, ...        *
          *                                                   *
          *****************************************************
          >>> job started at       Mon Feb 20 12:59:23 2023 <<<

 psp_library: /home/sjplimp/nwchem/PWDFT/Nwpw/libraryps



 initializing nwpw_APC object
 ----------------------------
 nga =   3 ngs =     9
 Gc  =   2.50000
 APC gamma: 0 0.60000
 APC gamma: 1 0.90000
 APC gamma: 2 1.35000
 - not self-consistent

 writing formatted psp filename: ./O.vpp

 writing formatted psp filename: ./H.vpp
 psi grids are being converted: 
 -----------------------------: 
 converting .... psi:1 spin:1
 converting .... psi:2 spin:1
 converting .... psi:3 spin:1
 converting .... psi:4 spin:1

 input psi exists, reading from file: ./nwchemex.movecs

          ==============  summary of input  ==================

 input psi filename: ./nwchemex.movecs

 number of processors used: 2
 processor grid           : 2 x1
 parallel mapping         : 2d-hcurve
 parallel mapping         : balanced

 options:
   boundary conditions  = periodic
   electron spin        = restricted
   exchange-correlation = PBE96 (White and Bird) parameterization

 elements involved in the cluster:
      1: O   valence charge =  6.0  lmax =2
             comment = Parameterized (Chem.Phys.Lett., vol 322, page 447) Hamman psp 
             pseudopotential type            =  0
             highest angular component       =  2
             local potential used            =  2
             number of non-local projections =  4
             cutoff =    0.700   0.700   0.700
      2: H   valence charge =  1.0  lmax =1
             comment = Parameterized (Chem.Phys.Lett., vol 322, page 447) Hamman psp 
             pseudopotential type            =  0
             highest angular component       =  1
             local potential used            =  1
             number of non-local projections =  1
             cutoff =    0.800   0.800

 total charge =   0.000

 atom composition:
   O : 1   H : 2

 initial ion positions (au):
   1 O	(    0.30530   -0.09999    0.06269 ) - atomic mass = 15.995
   2 H	(    1.51755    0.69756   -0.96690 ) - atomic mass =  1.008
   3 H	(   -0.61524   -1.26531   -0.92324 ) - atomic mass =  1.008
   G.C.	(    0.40254   -0.22258   -0.60915 )
 C.O.M.	(    0.32163   -0.12057   -0.05011 )

 real space Electric field:
     Electric Field (au) = (   0.00000    0.00000    0.00000 )
             Center (au) = (   0.00000    0.00000    0.00000 )


 number of electrons: spin up =     4 (   4 per task) down =     4 (   4 per task)

 supercell:
      volume =   17575.98
      lattice:    a1 = <   26.000    0.000    0.000 >
                  a2 = <    0.000   26.000    0.000 >
                  a3 = <    0.000    0.000   26.000 >
      reciprocal: b1 = <    0.242    0.000    0.000 >
                  b2 = <    0.000    0.242    0.000 >
                  b3 = <    0.000    0.000    0.242 >
      lattice:    a =      26.000 b =     26.000 c =      26.000
                  alpha =  90.000 beta =  90.000 gamma =  90.000
      density cutoff = 40.000 fft =  80 x   80 x   80  (  106048 waves    53024 per task)
      wavefnc cutoff = 20.000 fft =  80 x   80 x   80  (   37447 waves    18724 per task)

 Ewald parameters:
      energy cutoff =  40.000 fft =  80 x   80 x   80  (  106048 waves    53024 per task)
      Ewald summation: cut radius =   8.276 and   1
                       Mandelung Wigner-Seitz =  1.76011888 (alpha =  2.83729748 rs = 16.12910517)

 technical parameters:
      fixed step: time step =        5.80  ficticious mass =   400000.00
      tolerance =   1.000e-09 (energy)    1.000e+00 (density)    1.000e-04 (ion)
      max iterations =       1000 (   10 inner   100 outer)
      minimizer = Grassmann conjugate gradient



     ============ Grassmann conjugate gradient iteration ============
          >>> iteration started at Mon Feb 20 12:59:23 2023  <<<
     iter.                 Energy          DeltaE        DeltaRho
     ----------------------------------------------------------------
        - 10 steepest descent iterations performed
        10      -1.709563331677e+01   -6.201473e-04    4.252837e-06
        20      -1.709727702920e+01   -1.395637e-05    2.324058e-07
        30      -1.709728935245e+01   -1.652119e-07    9.383450e-10
        40      -1.709728957157e+01   -1.887344e-09    1.156678e-11
        50      -1.709728957459e+01   -8.627055e-10    2.856983e-12
     *** tolerance ok. iteration terminated
          >>> iteration ended at   Mon Feb 20 12:59:38 2023  <<<

     ==============  energy results (Molecule object)  ==============


 number of electrons: spin up=     4.00000  down=     4.00000 (real space)


 total     energy    :   -1.7097289575e+01 (   -5.69910e+00 /ion)
 total orbital energy:   -4.0996983017e+00 (   -1.02492e+00 /electron)
 hartree energy      :    1.7847984203e+01 (    4.46200e+00 /electron)
 exc-corr energy     :   -4.2204936664e+00 (   -1.05512e+00 /electron)
 ion-ion energy      :    3.5966388474e+00 (    1.19888e+00 /ion)

 kinetic (planewave) :    1.2079256817e+01 (    3.01981e+00 /electron)
 V_local (planewave) :   -4.5359046108e+01 (   -1.13398e+01 /electron)
 V_nl    (planewave) :   -1.0416296672e+00 (   -2.60407e-01 /electron)
 V_Coul  (planewave) :    3.5695968406e+01 (    8.92399e+00 /electron)
 V_xc    (planewave) :   -5.4742477490e+00 (   -1.36856e+00 /electron)
 Viral Coefficient   :   -1.3393998790e+00

 orbital energy:
    -2.6700298e-01 (  -7.266eV)
    -3.3720535e-01 (  -9.176eV)
    -5.0189171e-01 ( -13.657eV)
    -9.4374911e-01 ( -25.681eV)

== Center of Charge ==

spin up    = (    0.3298    -0.1310    -0.1068 )
spin down  = (    0.3298    -0.1310    -0.1068 )
     total = (    0.3298    -0.1310    -0.1068 )
ionic      = (    0.3418    -0.1460    -0.1893 )

== Molecular Dipole wrt Center of Mass ==

mu   = (    0.0958    -0.1200    -0.6599 ) au
|mu| =      0.6776 au (     1.7221 Debye )


*************************************************************
**                                                         **
**          PSPW Atomic Point Charge (APC) Analysis        **
**                                                         **
**   Point charge analysis based on paper by P.E. Blochl   **
**         (J. Chem. Phys. vol 103, page 7422, 1995)       **
**                                                         **
*************************************************************

 nwpw_APC object
 ---------------
 nga =   3 ngs =     9
 Gc  =   2.50000
 APC gamma: 0 0.60000
 APC gamma: 1 0.90000
 APC gamma: 2 1.35000
 - not self-consistent


 charge analysis on each atom
 ----------------------------

      no  atom        Qelc        Qion      Qtotal
   -----  ----     -------     -------     -------
       1    O       -6.631       6.000      -0.631
       2    H       -0.684       1.000       0.316
       3    H       -0.685       1.000       0.315
       Total Q      -8.000       8.000      -0.000


 Gaussian coefficients of model density
 --------------------------------------

      no  atom     g=0.000     g=0.600     g=0.900     g=1.350
   -----  ----     -------     -------     -------     -------
       1     O       6.000      -0.775      -2.618      -3.238
       2     H       1.000      -0.768       0.898      -0.814
       3     H       1.000      -0.766       0.895      -0.814


 output psi to filename: ./nwchemex.movecs

 -----------------
 cputime in seconds
 prologue    : 1.759e-01
 main loop   : 1.530e+01
 epilogue    : 3.071e-02
 total       : 1.551e+01
 cputime/step: 1.041e-01 ( 147 evaluations, 43 linesearches)

 Time spent doing      total        step             percent
 total time            2.323960e+01 1.580925e-01     100.00%
 total FFT time        9.001530e+00 6.123490e-02      38.73%
 lagrange multipliers  1.081922e-02 7.360016e-05       0.05%
 local potentials      1.837175e-03 1.249779e-05       0.01%
 non-local potentials  6.505598e-01 4.425577e-03       2.80%
 ffm_dgemm             2.219660e-01 1.509973e-03       0.96%
 fmf_dgemm             2.288675e-01 1.556921e-03       0.98%
 m_diagonalize         9.273830e-04 6.308728e-06       0.00%
 mmm_multiply          9.796900e-05 6.664558e-07       0.00%
 SCVtrans              3.439250e-04 2.339626e-06       0.00%

 >>> job completed at     Mon Feb 20 12:59:38 2023 <<<
          *****************************************************
          *                                                   *
          *               PWDFT PSPW Calculation              *
          *                                                   *
          *  [ (Grassmann/Stiefel manifold implementation) ]  *
          *  [              C++ implementation             ]  *
          *                                                   *
          *              version #7.00   02/27/21             *
          *                                                   *
          *    This code was developed by Eric J. Bylaska,    *
          *    Abhishek Bagusetty, David H. Bross, ...        *
          *                                                   *
          *****************************************************
          >>> job started at       Mon Feb 20 12:59:38 2023 <<<

 psp_library: /home/sjplimp/nwchem/PWDFT/Nwpw/libraryps



 initializing nwpw_APC object
 ----------------------------
 nga =   3 ngs =     9
 Gc  =   2.50000
 APC gamma: 0 0.60000
 APC gamma: 1 0.90000
 APC gamma: 2 1.35000
 APC u:        1         0.03217
 APC u:        2         0.01847
 APC u:        3         0.01917
 - self-consistent

 writing formatted psp filename: ./O.vpp

 writing formatted psp filename: ./H.vpp
 psi grids are being converted: 
 -----------------------------: 
 converting .... psi:1 spin:1
 converting .... psi:2 spin:1
 converting .... psi:3 spin:1
 converting .... psi:4 spin:1

 input psi exists, reading from file: ./nwchemex.movecs

          ==============  summary of input  ==================

 input psi filename: ./nwchemex.movecs

 number of processors used: 2
 processor grid           : 2 x1
 parallel mapping         : 2d-hcurve
 parallel mapping         : balanced

 options:
   boundary conditions  = periodic
   electron spin        = restricted
   exchange-correlation = PBE96 (White and Bird) parameterization

 elements involved in the cluster:
      1: O   valence charge =  6.0  lmax =2
             comment = Parameterized (Chem.Phys.Lett., vol 322, page 447) Hamman psp 
             pseudopotential type            =  0
             highest angular component       =  2
             local potential used            =  2
             number of non-local projections =  4
             cutoff =    0.700   0.700   0.700
      2: H   valence charge =  1.0  lmax =1
             comment = Parameterized (Chem.Phys.Lett., vol 322, page 447) Hamman psp 
             pseudopotential type            =  0
             highest angular component       =  1
             local potential used            =  1
             number of non-local projections =  1
             cutoff =    0.800   0.800

 total charge =   0.000

 atom composition:
   O : 1   H : 2

 initial ion positions (au):
   1 O	(    0.30530   -0.09999    0.06269 ) - atomic mass = 15.995
   2 H	(    1.51755    0.69756   -0.96690 ) - atomic mass =  1.008
   3 H	(   -0.61524   -1.26531   -0.92324 ) - atomic mass =  1.008
   G.C.	(    0.40254   -0.22258   -0.60915 )
 C.O.M.	(    0.32163   -0.12057   -0.05011 )

 real space Electric field:
     Electric Field (au) = (   0.00000    0.00000    0.00000 )
             Center (au) = (   0.00000    0.00000    0.00000 )


 number of electrons: spin up =     4 (   4 per task) down =     4 (   4 per task)

 supercell:
      volume =   17575.98
      lattice:    a1 = <   26.000    0.000    0.000 >
                  a2 = <    0.000   26.000    0.000 >
                  a3 = <    0.000    0.000   26.000 >
      reciprocal: b1 = <    0.242    0.000    0.000 >
                  b2 = <    0.000    0.242    0.000 >
                  b3 = <    0.000    0.000    0.242 >
      lattice:    a =      26.000 b =     26.000 c =      26.000
                  alpha =  90.000 beta =  90.000 gamma =  90.000
      density cutoff = 60.000 fft =  96 x   96 x   96  (  195216 waves    97608 per task)
      wavefnc cutoff = 30.000 fft =  96 x   96 x   96  (   69013 waves    34507 per task)

 Ewald parameters:
      energy cutoff =  60.000 fft =  96 x   96 x   96  (  195216 waves    97608 per task)
      Ewald summation: cut radius =   8.276 and   1
                       Mandelung Wigner-Seitz =  1.76011888 (alpha =  2.83729748 rs = 16.12910517)

 technical parameters:
      fixed step: time step =        5.80  ficticious mass =   400000.00
      tolerance =   1.000e-09 (energy)    1.000e+00 (density)    1.000e-04 (ion)
      max iterations =       1000 (   10 inner   100 outer)
      minimizer = Grassmann conjugate gradient



     ============ Grassmann conjugate gradient iteration ============
          >>> iteration started at Mon Feb 20 12:59:38 2023  <<<
     iter.                 Energy          DeltaE        DeltaRho
     ----------------------------------------------------------------
        - 10 steepest descent iterations performed
        10      -1.719854750859e+01   -5.739063e-05    1.086836e-06
        20      -1.719866697103e+01   -1.561352e-06    7.029033e-08
        30      -1.719867013369e+01   -4.633695e-08    1.534761e-10
        40      -1.719867027116e+01   -2.334716e-09    4.231098e-11
        50      -1.719867027638e+01   -8.351257e-10    1.415691e-11
     *** tolerance ok. iteration terminated
          >>> iteration ended at   Mon Feb 20 13:00:12 2023  <<<

     ==============  energy results (Molecule object)  ==============


 number of electrons: spin up=     4.00000  down=     4.00000 (real space)


 APC Potential:
   0.032168321   0.018471985   0.019170642

 APC Point Charges:
  -0.742599484   0.372218634   0.370380850


 total     energy    :   -1.7198670276e+01 (   -5.73289e+00 /ion)
 total orbital energy:   -4.1186005525e+00 (   -1.02965e+00 /electron)
 hartree energy      :    1.8012763373e+01 (    4.50319e+00 /electron)
 exc-corr energy     :   -4.2447731089e+00 (   -1.06119e+00 /electron)
 APC energy          :   -9.9121231916e-03 (   -3.30404e-03 /ion)
 ion-ion energy      :    3.5966383352e+00 (    1.19888e+00 /ion)

 kinetic (planewave) :    1.2411600602e+01 (    3.10290e+00 /electron)
 V_local (planewave) :   -4.5793468974e+01 (   -1.14484e+01 /electron)
 V_nl    (planewave) :   -1.2574819137e+00 (   -3.14370e-01 /electron)
 V_Coul  (planewave) :    3.6025526747e+01 (    9.00638e+00 /electron)
 V_xc    (planewave) :   -5.5047770128e+00 (   -1.37619e+00 /electron)
 K.S. V_APC energy   :   -8.5963533407e-02 (   -2.86545e-02 /ion)
 Viral Coefficient   :   -1.3318347637e+00

 orbital energy:
    -2.7467794e-01 (  -7.474eV)
    -3.4392861e-01 (  -9.359eV)
    -5.0664632e-01 ( -13.787eV)
    -9.3404742e-01 ( -25.417eV)

== Center of Charge ==

spin up    = (    0.3274    -0.1283    -0.0913 )
spin down  = (    0.3274    -0.1283    -0.0913 )
     total = (    0.3274    -0.1283    -0.0913 )
ionic      = (    0.3418    -0.1460    -0.1893 )

== Molecular Dipole wrt Center of Mass ==

mu   = (    0.1153    -0.1410    -0.7838 ) au
|mu| =      0.8046 au (     2.0451 Debye )


 Ion Forces (au):
   1 O	(    0.00014   -0.00159    0.00561 )
   2 H	(   -0.00082   -0.00158   -0.00230 )
   3 H	(    0.00231    0.00170   -0.00152 )



*************************************************************
**                                                         **
**          PSPW Atomic Point Charge (APC) Analysis        **
**                                                         **
**   Point charge analysis based on paper by P.E. Blochl   **
**         (J. Chem. Phys. vol 103, page 7422, 1995)       **
**                                                         **
*************************************************************

 nwpw_APC object
 ---------------
 nga =   3 ngs =     9
 Gc  =   2.50000
 APC gamma: 0 0.60000
 APC gamma: 1 0.90000
 APC gamma: 2 1.35000
 - self-consistent

 APC Potential:
   0.032168321   0.018471985   0.019170642

 APC Point Charges:
  -0.742599484   0.372218634   0.370380850


 charge analysis on each atom
 ----------------------------

      no  atom        Qelc        Qion      Qtotal
   -----  ----     -------     -------     -------
       1    O       -6.743       6.000      -0.743
       2    H       -0.628       1.000       0.372
       3    H       -0.630       1.000       0.370
       Total Q      -8.000       8.000      -0.000


 Gaussian coefficients of model density
 --------------------------------------

      no  atom     g=0.000     g=0.600     g=0.900     g=1.350
   -----  ----     -------     -------     -------     -------
       1     O       6.000      -1.097      -2.076      -3.569
       2     H       1.000      -0.718       0.776      -0.685
       3     H       1.000      -0.718       0.778      -0.690


 output psi to filename: ./nwchemex.movecs

 -----------------
 cputime in seconds
 prologue    : 2.824e-01
 main loop   : 3.353e+01
 epilogue    : 8.889e-02
 total       : 3.390e+01
 cputime/step: 2.266e-01 ( 148 evaluations, 44 linesearches)

 Time spent doing      total        step             percent
 total time            5.719710e+01 3.864669e-01     100.00%
 total FFT time        2.218099e+01 1.498716e-01      38.78%
 lagrange multipliers  2.714469e-02 1.834101e-04       0.05%
 local potentials      2.551341e-01 1.723879e-03       0.45%
 non-local potentials  1.391154e+00 9.399686e-03       2.43%
 ffm_dgemm             4.908890e-01 3.316818e-03       0.86%
 fmf_dgemm             5.523412e-01 3.732035e-03       0.97%
 m_diagonalize         1.296268e-03 8.758568e-06       0.00%
 mmm_multiply          1.409640e-04 9.524595e-07       0.00%
 SCVtrans              4.956650e-04 3.349088e-06       0.00%

 >>> job completed at     Mon Feb 20 13:00:12 2023 <<<
          *****************************************************
          *                                                   *
          *               PWDFT PSPW Calculation              *
          *                                                   *
          *  [ (Grassmann/Stiefel manifold implementation) ]  *
          *  [              C++ implementation             ]  *
          *                                                   *
          *              version #7.00   02/27/21             *
          *                                                   *
          *    This code was developed by Eric J. Bylaska,    *
          *    Abhishek Bagusetty, David H. Bross, ...        *
          *                                                   *
          *****************************************************
          >>> job started at       Mon Feb 20 13:00:12 2023 <<<

 psp_library: /home/sjplimp/nwchem/PWDFT/Nwpw/libraryps



 initializing nwpw_APC object
 ----------------------------
 nga =   3 ngs =     9
 Gc  =   2.50000
 APC gamma: 0 0.60000
 APC gamma: 1 0.90000
 APC gamma: 2 1.35000
 APC u:        1         0.03217
 APC u:        2         0.01848
 APC u:        3         0.01917
 - self-consistent

 reading formatted psp filename: ./O.vpp

 reading formatted psp filename: ./H.vpp
 input psi exists, reading from file: ./nwchemex.movecs

          ==============  summary of input  ==================

 input psi filename: ./nwchemex.movecs

 number of processors used: 2
 processor grid           : 2 x1
 parallel mapping         : 2d-hcurve
 parallel mapping         : balanced

 options:
   boundary conditions  = periodic
   electron spin        = restricted
   exchange-correlation = PBE96 (White and Bird) parameterization

 elements involved in the cluster:
      1: O   valence charge =  6.0  lmax =2
             comment = Parameterized (Chem.Phys.Lett., vol 322, page 447) Hamman psp 
             pseudopotential type            =  0
             highest angular component       =  2
             local potential used            =  2
             number of non-local projections =  4
             cutoff =    0.700   0.700   0.700
      2: H   valence charge =  1.0  lmax =1
             comment = Parameterized (Chem.Phys.Lett., vol 322, page 447) Hamman psp 
             pseudopotential type            =  0
             highest angular component       =  1
             local potential used            =  1
             number of non-local projections =  1
             cutoff =    0.800   0.800

 total charge =   0.000

 atom composition:
   O : 1   H : 2

 initial ion positions (au):
   1 O	(    0.30530   -0.09999    0.06269 ) - atomic mass = 15.995
   2 H	(    1.51755    0.69755   -0.96692 ) - atomic mass =  1.008
   3 H	(   -0.61523   -1.26531   -0.92326 ) - atomic mass =  1.008
   G.C.	(    0.40254   -0.22258   -0.60916 )
 C.O.M.	(    0.32163   -0.12057   -0.05011 )

 real space Electric field:
     Electric Field (au) = (   0.00000    0.00000    0.00000 )
             Center (au) = (   0.00000    0.00000    0.00000 )


 number of electrons: spin up =     4 (   4 per task) down =     4 (   4 per task)

 supercell:
      volume =   17575.98
      lattice:    a1 = <   26.000    0.000    0.000 >
                  a2 = <    0.000   26.000    0.000 >
                  a3 = <    0.000    0.000   26.000 >
      reciprocal: b1 = <    0.242    0.000    0.000 >
                  b2 = <    0.000    0.242    0.000 >
                  b3 = <    0.000    0.000    0.242 >
      lattice:    a =      26.000 b =     26.000 c =      26.000
                  alpha =  90.000 beta =  90.000 gamma =  90.000
      density cutoff = 60.000 fft =  96 x   96 x   96  (  195216 waves    97608 per task)
      wavefnc cutoff = 30.000 fft =  96 x   96 x   96  (   69013 waves    34507 per task)

 Ewald parameters:
      energy cutoff =  60.000 fft =  96 x   96 x   96  (  195216 waves    97608 per task)
      Ewald summation: cut radius =   8.276 and   1
                       Mandelung Wigner-Seitz =  1.76011888 (alpha =  2.83729748 rs = 16.12910517)

 technical parameters:
      fixed step: time step =        5.80  ficticious mass =   400000.00
      tolerance =   1.000e-09 (energy)    1.000e+00 (density)    1.000e-04 (ion)
      max iterations =       1000 (   10 inner   100 outer)
      minimizer = Grassmann conjugate gradient



     ============ Grassmann conjugate gradient iteration ============
          >>> iteration started at Mon Feb 20 13:00:12 2023  <<<
     iter.                 Energy          DeltaE        DeltaRho
     ----------------------------------------------------------------
        10      -1.719867286753e+01   -6.807959e-10    2.321477e-11
     *** tolerance ok. iteration terminated
          >>> iteration ended at   Mon Feb 20 13:00:13 2023  <<<

     ==============  energy results (Molecule object)  ==============


 number of electrons: spin up=     4.00000  down=     4.00000 (real space)


 APC Potential:
   0.032174976   0.018475289   0.019174010

 APC Point Charges:
  -0.742603988   0.372221498   0.370382490


 total     energy    :   -1.7198672868e+01 (   -5.73289e+00 /ion)
 total orbital energy:   -4.1185877728e+00 (   -1.02965e+00 /electron)
 hartree energy      :    1.8012764978e+01 (    4.50319e+00 /electron)
 exc-corr energy     :   -4.2447737993e+00 (   -1.06119e+00 /electron)
 APC energy          :   -9.9146481408e-03 (   -3.30488e-03 /ion)
 ion-ion energy      :    3.5966070435e+00 (    1.19887e+00 /ion)

 kinetic (planewave) :    1.2411604235e+01 (    3.10290e+00 /electron)
 V_local (planewave) :   -4.5793466800e+01 (   -1.14484e+01 /electron)
 V_nl    (planewave) :   -1.2574773464e+00 (   -3.14369e-01 /electron)
 V_Coul  (planewave) :    3.6025529957e+01 (    9.00638e+00 /electron)
 V_xc    (planewave) :   -5.5047778183e+00 (   -1.37619e+00 /electron)
 K.S. V_APC energy   :   -8.5983469374e-02 (   -2.86612e-02 /ion)
 Viral Coefficient   :   -1.3318336369e+00

 orbital energy:
    -2.7467727e-01 (  -7.474eV)
    -3.4393166e-01 (  -9.359eV)
    -5.0664047e-01 ( -13.786eV)
    -9.3404449e-01 ( -25.417eV)

== Center of Charge ==

spin up    = (    0.3274    -0.1283    -0.0913 )
spin down  = (    0.3274    -0.1283    -0.0913 )
     total = (    0.3274    -0.1283    -0.0913 )
ionic      = (    0.3418    -0.1460    -0.1893 )

== Molecular Dipole wrt Center of Mass ==

mu   = (    0.1153    -0.1410    -0.7838 ) au
|mu| =      0.8047 au (     2.0451 Debye )


 Ion Forces (au):
   1 O	(    0.00016   -0.00158    0.00552 )
   2 H	(   -0.00083   -0.00158   -0.00229 )
   3 H	(    0.00230    0.00170   -0.00151 )



*************************************************************
**                                                         **
**          PSPW Atomic Point Charge (APC) Analysis        **
**                                                         **
**   Point charge analysis based on paper by P.E. Blochl   **
**         (J. Chem. Phys. vol 103, page 7422, 1995)       **
**                                                         **
*************************************************************

 nwpw_APC object
 ---------------
 nga =   3 ngs =     9
 Gc  =   2.50000
 APC gamma: 0 0.60000
 APC gamma: 1 0.90000
 APC gamma: 2 1.35000
 - self-consistent

 APC Potential:
   0.032174976   0.018475289   0.019174010

 APC Point Charges:
  -0.742603988   0.372221498   0.370382490


 charge analysis on each atom
 ----------------------------

      no  atom        Qelc        Qion      Qtotal
   -----  ----     -------     -------     -------
       1    O       -6.743       6.000      -0.743
       2    H       -0.628       1.000       0.372
       3    H       -0.630       1.000       0.370
       Total Q      -8.000       8.000      -0.000


 Gaussian coefficients of model density
 --------------------------------------

      no  atom     g=0.000     g=0.600     g=0.900     g=1.350
   -----  ----     -------     -------     -------     -------
       1     O       6.000      -1.098      -2.076      -3.570
       2     H       1.000      -0.718       0.776      -0.685
       3     H       1.000      -0.718       0.778      -0.689


 output psi to filename: ./nwchemex.movecs

 -----------------
 cputime in seconds
 prologue    : 1.942e-01
 main loop   : 9.251e-01
 epilogue    : 8.871e-02
 total       : 1.208e+00
 cputime/step: 2.313e-01 ( 4 evaluations, 1 linesearches)

 Time spent doing      total        step             percent
 total time            5.844822e+01 1.461205e+01     100.00%
 total FFT time        2.253788e+01 5.634470e+00      38.56%
 lagrange multipliers  2.714469e-02 6.786172e-03       0.05%
 local potentials      2.669456e-01 6.673640e-02       0.46%
 non-local potentials  1.424462e+00 3.561155e-01       2.44%
 ffm_dgemm             4.980762e-01 1.245191e-01       0.85%
 fmf_dgemm             5.595647e-01 1.398912e-01       0.96%
 m_diagonalize         1.316873e-03 3.292183e-04       0.00%
 mmm_multiply          1.425090e-04 3.562725e-05       0.00%
 SCVtrans              4.998940e-04 1.249735e-04       0.00%

 >>> job completed at     Mon Feb 20 13:00:13 2023 <<<
          *****************************************************
          *                                                   *
          *               PWDFT PSPW Calculation              *
          *                                                   *
          *  [ (Grassmann/Stiefel manifold implementation) ]  *
          *  [              C++ implementation             ]  *
          *                                                   *
          *              version #7.00   02/27/21             *
          *                                                   *
          *    This code was developed by Eric J. Bylaska,    *
          *    Abhishek Bagusetty, David H. Bross, ...        *
          *                                                   *
          *****************************************************
          >>> job started at       Mon Feb 20 13:00:13 2023 <<<

 psp_library: /home/sjplimp/nwchem/PWDFT/Nwpw/libraryps



 initializing nwpw_APC object
 ----------------------------
 nga =   3 ngs =     9
 Gc  =   2.50000
 APC gamma: 0 0.60000
 APC gamma: 1 0.90000
 APC gamma: 2 1.35000
 APC u:        1         0.03219
 APC u:        2         0.01849
 APC u:        3         0.01918
 - self-consistent

 reading formatted psp filename: ./O.vpp

 reading formatted psp filename: ./H.vpp
 input psi exists, reading from file: ./nwchemex.movecs

          ==============  summary of input  ==================

 input psi filename: ./nwchemex.movecs

 number of processors used: 2
 processor grid           : 2 x1
 parallel mapping         : 2d-hcurve
 parallel mapping         : balanced

 options:
   boundary conditions  = periodic
   electron spin        = restricted
   exchange-correlation = PBE96 (White and Bird) parameterization

 elements involved in the cluster:
      1: O   valence charge =  6.0  lmax =2
             comment = Parameterized (Chem.Phys.Lett., vol 322, page 447) Hamman psp 
             pseudopotential type            =  0
             highest angular component       =  2
             local potential used            =  2
             number of non-local projections =  4
             cutoff =    0.700   0.700   0.700
      2: H   valence charge =  1.0  lmax =1
             comment = Parameterized (Chem.Phys.Lett., vol 322, page 447) Hamman psp 
             pseudopotential type            =  0
             highest angular component       =  1
             local potential used            =  1
             number of non-local projections =  1
             cutoff =    0.800   0.800

 total charge =   0.000

 atom composition:
   O : 1   H : 2

 initial ion positions (au):
   1 O	(    0.30530   -0.09999    0.06270 ) - atomic mass = 15.995
   2 H	(    1.51756    0.69753   -0.96698 ) - atomic mass =  1.008
   3 H	(   -0.61520   -1.26530   -0.92331 ) - atomic mass =  1.008
   G.C.	(    0.40256   -0.22259   -0.60920 )
 C.O.M.	(    0.32163   -0.12057   -0.05011 )

 real space Electric field:
     Electric Field (au) = (   0.00000    0.00000    0.00000 )
             Center (au) = (   0.00000    0.00000    0.00000 )


 number of electrons: spin up =     4 (   4 per task) down =     4 (   4 per task)

 supercell:
      volume =   17575.98
      lattice:    a1 = <   26.000    0.000    0.000 >
                  a2 = <    0.000   26.000    0.000 >
                  a3 = <    0.000    0.000   26.000 >
      reciprocal: b1 = <    0.242    0.000    0.000 >
                  b2 = <    0.000    0.242    0.000 >
                  b3 = <    0.000    0.000    0.242 >
      lattice:    a =      26.000 b =     26.000 c =      26.000
                  alpha =  90.000 beta =  90.000 gamma =  90.000
      density cutoff = 60.000 fft =  96 x   96 x   96  (  195216 waves    97608 per task)
      wavefnc cutoff = 30.000 fft =  96 x   96 x   96  (   69013 waves    34507 per task)

 Ewald parameters:
      energy cutoff =  60.000 fft =  96 x   96 x   96  (  195216 waves    97608 per task)
      Ewald summation: cut radius =   8.276 and   1
                       Mandelung Wigner-Seitz =  1.76011888 (alpha =  2.83729748 rs = 16.12910517)

 technical parameters:
      fixed step: time step =        5.80  ficticious mass =   400000.00
      tolerance =   1.000e-09 (energy)    1.000e+00 (density)    1.000e-04 (ion)
      max iterations =       1000 (   10 inner   100 outer)
      minimizer = Grassmann conjugate gradient



     ============ Grassmann conjugate gradient iteration ============
          >>> iteration started at Mon Feb 20 13:00:14 2023  <<<
     iter.                 Energy          DeltaE        DeltaRho
     ----------------------------------------------------------------
        10      -1.719868062972e+01   -9.425918e-10    5.922221e-11
     *** tolerance ok. iteration terminated
          >>> iteration ended at   Mon Feb 20 13:00:16 2023  <<<

     ==============  energy results (Molecule object)  ==============


 number of electrons: spin up=     4.00000  down=     4.00000 (real space)


 APC Potential:
   0.032194911   0.018485184   0.019184100

 APC Point Charges:
  -0.742638641   0.372241291   0.370397350


 total     energy    :   -1.7198680630e+01 (   -5.73289e+00 /ion)
 total orbital energy:   -4.1185937828e+00 (   -1.02965e+00 /electron)
 hartree energy      :    1.8012723256e+01 (    4.50318e+00 /electron)
 exc-corr energy     :   -4.2447666970e+00 (   -1.06119e+00 /electron)
 APC energy          :   -9.9224962706e-03 (   -3.30750e-03 /ion)
 ion-ion energy      :    3.5965135890e+00 (    1.19884e+00 /ion)

 kinetic (planewave) :    1.2411587836e+01 (    3.10290e+00 /electron)
 V_local (planewave) :   -4.5793387800e+01 (   -1.14483e+01 /electron)
 V_nl    (planewave) :   -1.2574717978e+00 (   -3.14368e-01 /electron)
 V_Coul  (planewave) :    3.6025446511e+01 (    9.00636e+00 /electron)
 V_xc    (planewave) :   -5.5047685322e+00 (   -1.37619e+00 /electron)
 K.S. V_APC energy   :   -8.6043480840e-02 (   -2.86812e-02 /ion)
 Viral Coefficient   :   -1.3318345595e+00

 orbital energy:
    -2.7468030e-01 (  -7.474eV)
    -3.4394195e-01 (  -9.359eV)
    -5.0663062e-01 ( -13.786eV)
    -9.3404403e-01 ( -25.417eV)

== Center of Charge ==

spin up    = (    0.3274    -0.1283    -0.0913 )
spin down  = (    0.3274    -0.1283    -0.0913 )
     total = (    0.3274    -0.1283    -0.0913 )
ionic      = (    0.3418    -0.1460    -0.1893 )

== Molecular Dipole wrt Center of Mass ==

mu   = (    0.1153    -0.1410    -0.7839 ) au
|mu| =      0.8048 au (     2.0454 Debye )


 Ion Forces (au):
   1 O	(    0.00015   -0.00159    0.00561 )
   2 H	(   -0.00084   -0.00158   -0.00227 )
   3 H	(    0.00230    0.00170   -0.00150 )



*************************************************************
**                                                         **
**          PSPW Atomic Point Charge (APC) Analysis        **
**                                                         **
**   Point charge analysis based on paper by P.E. Blochl   **
**         (J. Chem. Phys. vol 103, page 7422, 1995)       **
**                                                         **
*************************************************************

 nwpw_APC object
 ---------------
 nga =   3 ngs =     9
 Gc  =   2.50000
 APC gamma: 0 0.60000
 APC gamma: 1 0.90000
 APC gamma: 2 1.35000
 - self-consistent

 APC Potential:
   0.032194911   0.018485184   0.019184100

 APC Point Charges:
  -0.742638641   0.372241291   0.370397350


 charge analysis on each atom
 ----------------------------

      no  atom        Qelc        Qion      Qtotal
   -----  ----     -------     -------     -------
       1    O       -6.743       6.000      -0.743
       2    H       -0.628       1.000       0.372
       3    H       -0.630       1.000       0.370
       Total Q      -8.000       8.000      -0.000


 Gaussian coefficients of model density
 --------------------------------------

      no  atom     g=0.000     g=0.600     g=0.900     g=1.350
   -----  ----     -------     -------     -------     -------
       1     O       6.000      -1.098      -2.075      -3.570
       2     H       1.000      -0.718       0.776      -0.685
       3     H       1.000      -0.718       0.778      -0.689


 output psi to filename: ./nwchemex.movecs

 -----------------
 cputime in seconds
 prologue    : 1.916e-01
 main loop   : 2.278e+00
 epilogue    : 8.903e-02
 total       : 2.559e+00
 cputime/step: 2.278e-01 ( 10 evaluations, 3 linesearches)

 Time spent doing      total        step             percent
 total time            6.103553e+01 6.103553e+00     100.00%
 total FFT time        2.342587e+01 2.342587e+00      38.38%
 lagrange multipliers  2.714469e-02 2.714469e-03       0.04%
 local potentials      2.887727e-01 2.887727e-02       0.47%
 non-local potentials  1.486650e+00 1.486650e-01       2.44%
 ffm_dgemm             5.165938e-01 5.165938e-02       0.85%
 fmf_dgemm             5.811251e-01 5.811251e-02       0.95%
 m_diagonalize         1.354440e-03 1.354440e-04       0.00%
 mmm_multiply          1.461520e-04 1.461520e-05       0.00%
 SCVtrans              5.096160e-04 5.096160e-05       0.00%

 >>> job completed at     Mon Feb 20 13:00:16 2023 <<<
          *****************************************************
          *                                                   *
          *               PWDFT PSPW Calculation              *
          *                                                   *
          *  [ (Grassmann/Stiefel manifold implementation) ]  *
          *  [              C++ implementation             ]  *
          *                                                   *
          *              version #7.00   02/27/21             *
          *                                                   *
          *    This code was developed by Eric J. Bylaska,    *
          *    Abhishek Bagusetty, David H. Bross, ...        *
          *                                                   *
          *****************************************************
          >>> job started at       Mon Feb 20 13:00:16 2023 <<<

 psp_library: /home/sjplimp/nwchem/PWDFT/Nwpw/libraryps



 initializing nwpw_APC object
 ----------------------------
 nga =   3 ngs =     9
 Gc  =   2.50000
 APC gamma: 0 0.60000
 APC gamma: 1 0.90000
 APC gamma: 2 1.35000
 APC u:        1         0.03223
 APC u:        2         0.01850
 APC u:        3         0.01920
 - self-consistent

 reading formatted psp filename: ./O.vpp

 reading formatted psp filename: ./H.vpp
 input psi exists, reading from file: ./nwchemex.movecs

          ==============  summary of input  ==================

 input psi filename: ./nwchemex.movecs

 number of processors used: 2
 processor grid           : 2 x1
 parallel mapping         : 2d-hcurve
 parallel mapping         : balanced

 options:
   boundary conditions  = periodic
   electron spin        = restricted
   exchange-correlation = PBE96 (White and Bird) parameterization

 elements involved in the cluster:
      1: O   valence charge =  6.0  lmax =2
             comment = Parameterized (Chem.Phys.Lett., vol 322, page 447) Hamman psp 
             pseudopotential type            =  0
             highest angular component       =  2
             local potential used            =  2
             number of non-local projections =  4
             cutoff =    0.700   0.700   0.700
      2: H   valence charge =  1.0  lmax =1
             comment = Parameterized (Chem.Phys.Lett., vol 322, page 447) Hamman psp 
             pseudopotential type            =  0
             highest angular component       =  1
             local potential used            =  1
             number of non-local projections =  1
             cutoff =    0.800   0.800

 total charge =   0.000

 atom composition:
   O : 1   H : 2

 initial ion positions (au):
   1 O	(    0.30530   -0.09999    0.06272 ) - atomic mass = 15.995
   2 H	(    1.51757    0.69750   -0.96708 ) - atomic mass =  1.008
   3 H	(   -0.61515   -1.26529   -0.92340 ) - atomic mass =  1.008
   G.C.	(    0.40258   -0.22259   -0.60925 )
 C.O.M.	(    0.32163   -0.12058   -0.05011 )

 real space Electric field:
     Electric Field (au) = (   0.00000    0.00000    0.00000 )
             Center (au) = (   0.00000    0.00000    0.00000 )


 number of electrons: spin up =     4 (   4 per task) down =     4 (   4 per task)

 supercell:
      volume =   17575.98
      lattice:    a1 = <   26.000    0.000    0.000 >
                  a2 = <    0.000   26.000    0.000 >
                  a3 = <    0.000    0.000   26.000 >
      reciprocal: b1 = <    0.242    0.000    0.000 >
                  b2 = <    0.000    0.242    0.000 >
                  b3 = <    0.000    0.000    0.242 >
      lattice:    a =      26.000 b =     26.000 c =      26.000
                  alpha =  90.000 beta =  90.000 gamma =  90.000
      density cutoff = 60.000 fft =  96 x   96 x   96  (  195216 waves    97608 per task)
      wavefnc cutoff = 30.000 fft =  96 x   96 x   96  (   69013 waves    34507 per task)

 Ewald parameters:
      energy cutoff =  60.000 fft =  96 x   96 x   96  (  195216 waves    97608 per task)
      Ewald summation: cut radius =   8.276 and   1
                       Mandelung Wigner-Seitz =  1.76011888 (alpha =  2.83729748 rs = 16.12910517)

 technical parameters:
      fixed step: time step =        5.80  ficticious mass =   400000.00
      tolerance =   1.000e-09 (energy)    1.000e+00 (density)    1.000e-04 (ion)
      max iterations =       1000 (   10 inner   100 outer)
      minimizer = Grassmann conjugate gradient



     ============ Grassmann conjugate gradient iteration ============
          >>> iteration started at Mon Feb 20 13:00:16 2023  <<<
     iter.                 Energy          DeltaE        DeltaRho
     ----------------------------------------------------------------
        10      -1.719869353513e+01   -6.996892e-10    1.974356e-11
     *** tolerance ok. iteration terminated
          >>> iteration ended at   Mon Feb 20 13:00:20 2023  <<<

     ==============  energy results (Molecule object)  ==============


 number of electrons: spin up=     4.00000  down=     4.00000 (real space)


 APC Potential:
   0.032228045   0.018501626   0.019200864

 APC Point Charges:
  -0.742700321   0.372273084   0.370427237


 total     energy    :   -1.7198693535e+01 (   -5.73290e+00 /ion)
 total orbital energy:   -4.1186507914e+00 (   -1.02966e+00 /electron)
 hartree energy      :    1.8012603696e+01 (    4.50315e+00 /electron)
 exc-corr energy     :   -4.2447443787e+00 (   -1.06119e+00 /electron)
 APC energy          :   -9.9355992608e-03 (   -3.31187e-03 /ion)
 ion-ion energy      :    3.5963580889e+00 (    1.19879e+00 /ion)

 kinetic (planewave) :    1.2411482266e+01 (    3.10287e+00 /electron)
 V_local (planewave) :   -4.5793167644e+01 (   -1.14483e+01 /electron)
 V_nl    (planewave) :   -1.2574332540e+00 (   -3.14358e-01 /electron)
 V_Coul  (planewave) :    3.6025207393e+01 (    9.00630e+00 /electron)
 V_xc    (planewave) :   -5.5047395518e+00 (   -1.37618e+00 /electron)
 K.S. V_APC energy   :   -8.6143289859e-02 (   -2.87144e-02 /ion)
 Viral Coefficient   :   -1.3318419753e+00

 orbital energy:
    -2.7469140e-01 (  -7.475eV)
    -3.4396624e-01 (  -9.360eV)
    -5.0661933e-01 ( -13.786eV)
    -9.3404843e-01 ( -25.417eV)

== Center of Charge ==

spin up    = (    0.3274    -0.1283    -0.0913 )
spin down  = (    0.3274    -0.1283    -0.0913 )
     total = (    0.3274    -0.1283    -0.0913 )
ionic      = (    0.3418    -0.1460    -0.1893 )

== Molecular Dipole wrt Center of Mass ==

mu   = (    0.1153    -0.1410    -0.7840 ) au
|mu| =      0.8049 au (     2.0458 Debye )


 Ion Forces (au):
   1 O	(    0.00017   -0.00159    0.00555 )
   2 H	(   -0.00085   -0.00159   -0.00225 )
   3 H	(    0.00230    0.00170   -0.00150 )



*************************************************************
**                                                         **
**          PSPW Atomic Point Charge (APC) Analysis        **
**                                                         **
**   Point charge analysis based on paper by P.E. Blochl   **
**         (J. Chem. Phys. vol 103, page 7422, 1995)       **
**                                                         **
*************************************************************

 nwpw_APC object
 ---------------
 nga =   3 ngs =     9
 Gc  =   2.50000
 APC gamma: 0 0.60000
 APC gamma: 1 0.90000
 APC gamma: 2 1.35000
 - self-consistent

 APC Potential:
   0.032228045   0.018501626   0.019200864

 APC Point Charges:
  -0.742700321   0.372273084   0.370427237


 charge analysis on each atom
 ----------------------------

      no  atom        Qelc        Qion      Qtotal
   -----  ----     -------     -------     -------
       1    O       -6.743       6.000      -0.743
       2    H       -0.628       1.000       0.372
       3    H       -0.630       1.000       0.370
       Total Q      -8.000       8.000      -0.000


 Gaussian coefficients of model density
 --------------------------------------

      no  atom     g=0.000     g=0.600     g=0.900     g=1.350
   -----  ----     -------     -------     -------     -------
       1     O       6.000      -1.098      -2.075      -3.570
       2     H       1.000      -0.718       0.776      -0.685
       3     H       1.000      -0.718       0.778      -0.689


 output psi to filename: ./nwchemex.movecs

 -----------------
 cputime in seconds
 prologue    : 1.934e-01
 main loop   : 3.645e+00
 epilogue    : 8.890e-02
 total       : 3.928e+00
 cputime/step: 2.278e-01 ( 16 evaluations, 5 linesearches)

 Time spent doing      total        step             percent
 total time            6.499079e+01 4.061924e+00     100.00%
 total FFT time        2.485307e+01 1.553317e+00      38.24%
 lagrange multipliers  2.714469e-02 1.696543e-03       0.04%
 local potentials      3.208754e-01 2.005472e-02       0.49%
 non-local potentials  1.577413e+00 9.858830e-02       2.43%
 ffm_dgemm             5.462850e-01 3.414281e-02       0.84%
 fmf_dgemm             6.172050e-01 3.857532e-02       0.95%
 m_diagonalize         1.409547e-03 8.809669e-05       0.00%
 mmm_multiply          1.509580e-04 9.434875e-06       0.00%
 SCVtrans              5.279350e-04 3.299594e-05       0.00%

 >>> job completed at     Mon Feb 20 13:00:20 2023 <<<
          *****************************************************
          *                                                   *
          *               PWDFT PSPW Calculation              *
          *                                                   *
          *  [ (Grassmann/Stiefel manifold implementation) ]  *
          *  [              C++ implementation             ]  *
          *                                                   *
          *              version #7.00   02/27/21             *
          *                                                   *
          *    This code was developed by Eric J. Bylaska,    *
          *    Abhishek Bagusetty, David H. Bross, ...        *
          *                                                   *
          *****************************************************
          >>> job started at       Mon Feb 20 13:00:20 2023 <<<

 psp_library: /home/sjplimp/nwchem/PWDFT/Nwpw/libraryps



 initializing nwpw_APC object
 ----------------------------
 nga =   3 ngs =     9
 Gc  =   2.50000
 APC gamma: 0 0.60000
 APC gamma: 1 0.90000
 APC gamma: 2 1.35000
 APC u:        1         0.03227
 APC u:        2         0.01852
 APC u:        3         0.01922
 - self-consistent

 reading formatted psp filename: ./O.vpp

 reading formatted psp filename: ./H.vpp
 input psi exists, reading from file: ./nwchemex.movecs

          ==============  summary of input  ==================

 input psi filename: ./nwchemex.movecs

 number of processors used: 2
 processor grid           : 2 x1
 parallel mapping         : 2d-hcurve
 parallel mapping         : balanced

 options:
   boundary conditions  = periodic
   electron spin        = restricted
   exchange-correlation = PBE96 (White and Bird) parameterization

 elements involved in the cluster:
      1: O   valence charge =  6.0  lmax =2
             comment = Parameterized (Chem.Phys.Lett., vol 322, page 447) Hamman psp 
             pseudopotential type            =  0
             highest angular component       =  2
             local potential used            =  2
             number of non-local projections =  4
             cutoff =    0.700   0.700   0.700
      2: H   valence charge =  1.0  lmax =1
             comment = Parameterized (Chem.Phys.Lett., vol 322, page 447) Hamman psp 
             pseudopotential type            =  0
             highest angular component       =  1
             local potential used            =  1
             number of non-local projections =  1
             cutoff =    0.800   0.800

 total charge =   0.000

 atom composition:
   O : 1   H : 2

 initial ion positions (au):
   1 O	(    0.30530   -0.09999    0.06274 ) - atomic mass = 15.995
   2 H	(    1.51759    0.69745   -0.96723 ) - atomic mass =  1.008
   3 H	(   -0.61508   -1.26528   -0.92351 ) - atomic mass =  1.008
   G.C.	(    0.40260   -0.22261   -0.60934 )
 C.O.M.	(    0.32164   -0.12058   -0.05010 )

 real space Electric field:
     Electric Field (au) = (   0.00000    0.00000    0.00000 )
             Center (au) = (   0.00000    0.00000    0.00000 )


 number of electrons: spin up =     4 (   4 per task) down =     4 (   4 per task)

 supercell:
      volume =   17575.98
      lattice:    a1 = <   26.000    0.000    0.000 >
                  a2 = <    0.000   26.000    0.000 >
                  a3 = <    0.000    0.000   26.000 >
      reciprocal: b1 = <    0.242    0.000    0.000 >
                  b2 = <    0.000    0.242    0.000 >
                  b3 = <    0.000    0.000    0.242 >
      lattice:    a =      26.000 b =     26.000 c =      26.000
                  alpha =  90.000 beta =  90.000 gamma =  90.000
      density cutoff = 60.000 fft =  96 x   96 x   96  (  195216 waves    97608 per task)
      wavefnc cutoff = 30.000 fft =  96 x   96 x   96  (   69013 waves    34507 per task)

 Ewald parameters:
      energy cutoff =  60.000 fft =  96 x   96 x   96  (  195216 waves    97608 per task)
      Ewald summation: cut radius =   8.276 and   1
                       Mandelung Wigner-Seitz =  1.76011888 (alpha =  2.83729748 rs = 16.12910517)

 technical parameters:
      fixed step: time step =        5.80  ficticious mass =   400000.00
      tolerance =   1.000e-09 (energy)    1.000e+00 (density)    1.000e-04 (ion)
      max iterations =       1000 (   10 inner   100 outer)
      minimizer = Grassmann conjugate gradient



     ============ Grassmann conjugate gradient iteration ============
          >>> iteration started at Mon Feb 20 13:00:20 2023  <<<
     iter.                 Energy          DeltaE        DeltaRho
     ----------------------------------------------------------------
        10      -1.719871153462e+01   -6.391758e-10    1.229918e-11
     *** tolerance ok. iteration terminated
          >>> iteration ended at   Mon Feb 20 13:00:24 2023  <<<

     ==============  energy results (Molecule object)  ==============


 number of electrons: spin up=     4.00000  down=     4.00000 (real space)


 APC Potential:
   0.032274243   0.018524540   0.019224223

 APC Point Charges:
  -0.742788677   0.372316049   0.370472628


 total     energy    :   -1.7198711535e+01 (   -5.73290e+00 /ion)
 total orbital energy:   -4.1187171364e+00 (   -1.02968e+00 /electron)
 hartree energy      :    1.8012450719e+01 (    4.50311e+00 /electron)
 exc-corr energy     :   -4.2447163276e+00 (   -1.06118e+00 /electron)
 APC energy          :   -9.9539102235e-03 (   -3.31797e-03 /ion)
 ion-ion energy      :    3.5961410380e+00 (    1.19871e+00 /ion)

 kinetic (planewave) :    1.2411346542e+01 (    3.10284e+00 /electron)
 V_local (planewave) :   -4.5792882362e+01 (   -1.14482e+01 /electron)
 V_nl    (planewave) :   -1.2573797281e+00 (   -3.14345e-01 /electron)
 V_Coul  (planewave) :    3.6024901437e+01 (    9.00623e+00 /electron)
 V_xc    (planewave) :   -5.5047030248e+00 (   -1.37618e+00 /electron)
 K.S. V_APC energy   :   -8.6282495389e-02 (   -2.87608e-02 /ion)
 Viral Coefficient   :   -1.3318509497e+00

 orbital energy:
    -2.7470533e-01 (  -7.475eV)
    -3.4399929e-01 (  -9.361eV)
    -5.0660134e-01 ( -13.785eV)
    -9.3405260e-01 ( -25.417eV)

== Center of Charge ==

spin up    = (    0.3274    -0.1283    -0.0913 )
spin down  = (    0.3274    -0.1283    -0.0913 )
     total = (    0.3274    -0.1283    -0.0913 )
ionic      = (    0.3418    -0.1460    -0.1893 )

== Molecular Dipole wrt Center of Mass ==

mu   = (    0.1154    -0.1410    -0.7843 ) au
|mu| =      0.8052 au (     2.0464 Debye )


 Ion Forces (au):
   1 O	(    0.00019   -0.00159    0.00550 )
   2 H	(   -0.00088   -0.00160   -0.00222 )
   3 H	(    0.00230    0.00170   -0.00148 )



*************************************************************
**                                                         **
**          PSPW Atomic Point Charge (APC) Analysis        **
**                                                         **
**   Point charge analysis based on paper by P.E. Blochl   **
**         (J. Chem. Phys. vol 103, page 7422, 1995)       **
**                                                         **
*************************************************************

 nwpw_APC object
 ---------------
 nga =   3 ngs =     9
 Gc  =   2.50000
 APC gamma: 0 0.60000
 APC gamma: 1 0.90000
 APC gamma: 2 1.35000
 - self-consistent

 APC Potential:
   0.032274243   0.018524540   0.019224223

 APC Point Charges:
  -0.742788677   0.372316049   0.370472628


 charge analysis on each atom
 ----------------------------

      no  atom        Qelc        Qion      Qtotal
   -----  ----     -------     -------     -------
       1    O       -6.743       6.000      -0.743
       2    H       -0.628       1.000       0.372
       3    H       -0.630       1.000       0.370
       Total Q      -8.000       8.000      -0.000


 Gaussian coefficients of model density
 --------------------------------------

      no  atom     g=0.000     g=0.600     g=0.900     g=1.350
   -----  ----     -------     -------     -------     -------
       1     O       6.000      -1.098      -2.074      -3.571
       2     H       1.000      -0.718       0.775      -0.685
       3     H       1.000      -0.718       0.778      -0.689


 output psi to filename: ./nwchemex.movecs

 -----------------
 cputime in seconds
 prologue    : 1.927e-01
 main loop   : 4.317e+00
 epilogue    : 8.818e-02
 total       : 4.598e+00
 cputime/step: 2.272e-01 ( 19 evaluations, 6 linesearches)

 Time spent doing      total        step             percent
 total time            6.961816e+01 3.664114e+00     100.00%
 total FFT time        2.654570e+01 1.397142e+00      38.13%
 lagrange multipliers  2.714469e-02 1.428668e-03       0.04%
 local potentials      3.578721e-01 1.883537e-02       0.51%
 non-local potentials  1.681791e+00 8.851531e-02       2.42%
 ffm_dgemm             5.817009e-01 3.061584e-02       0.84%
 fmf_dgemm             6.604804e-01 3.476212e-02       0.95%
 m_diagonalize         1.469262e-03 7.732958e-05       0.00%
 mmm_multiply          1.588480e-04 8.360421e-06       0.00%
 SCVtrans              5.496380e-04 2.892832e-05       0.00%

 >>> job completed at     Mon Feb 20 13:00:25 2023 <<<
          *****************************************************
          *                                                   *
          *               PWDFT PSPW Calculation              *
          *                                                   *
          *  [ (Grassmann/Stiefel manifold implementation) ]  *
          *  [              C++ implementation             ]  *
          *                                                   *
          *              version #7.00   02/27/21             *
          *                                                   *
          *    This code was developed by Eric J. Bylaska,    *
          *    Abhishek Bagusetty, David H. Bross, ...        *
          *                                                   *
          *****************************************************
          >>> job started at       Mon Feb 20 13:00:25 2023 <<<

 psp_library: /home/sjplimp/nwchem/PWDFT/Nwpw/libraryps



 initializing nwpw_APC object
 ----------------------------
 nga =   3 ngs =     9
 Gc  =   2.50000
 APC gamma: 0 0.60000
 APC gamma: 1 0.90000
 APC gamma: 2 1.35000
 APC u:        1         0.03233
 APC u:        2         0.01855
 APC u:        3         0.01925
 - self-consistent

 reading formatted psp filename: ./O.vpp

 reading formatted psp filename: ./H.vpp
 input psi exists, reading from file: ./nwchemex.movecs

          ==============  summary of input  ==================

 input psi filename: ./nwchemex.movecs

 number of processors used: 2
 processor grid           : 2 x1
 parallel mapping         : 2d-hcurve
 parallel mapping         : balanced

 options:
   boundary conditions  = periodic
   electron spin        = restricted
   exchange-correlation = PBE96 (White and Bird) parameterization

 elements involved in the cluster:
      1: O   valence charge =  6.0  lmax =2
             comment = Parameterized (Chem.Phys.Lett., vol 322, page 447) Hamman psp 
             pseudopotential type            =  0
             highest angular component       =  2
             local potential used            =  2
             number of non-local projections =  4
             cutoff =    0.700   0.700   0.700
      2: H   valence charge =  1.0  lmax =1
             comment = Parameterized (Chem.Phys.Lett., vol 322, page 447) Hamman psp 
             pseudopotential type            =  0
             highest angular component       =  1
             local potential used            =  1
             number of non-local projections =  1
             cutoff =    0.800   0.800

 total charge =   0.000

 atom composition:
   O : 1   H : 2

 initial ion positions (au):
   1 O	(    0.30530   -0.09999    0.06277 ) - atomic mass = 15.995
   2 H	(    1.51761    0.69739   -0.96741 ) - atomic mass =  1.008
   3 H	(   -0.61499   -1.26526   -0.92367 ) - atomic mass =  1.008
   G.C.	(    0.40264   -0.22262   -0.60944 )
 C.O.M.	(    0.32164   -0.12058   -0.05010 )

 real space Electric field:
     Electric Field (au) = (   0.00000    0.00000    0.00000 )
             Center (au) = (   0.00000    0.00000    0.00000 )


 number of electrons: spin up =     4 (   4 per task) down =     4 (   4 per task)

 supercell:
      volume =   17575.98
      lattice:    a1 = <   26.000    0.000    0.000 >
                  a2 = <    0.000   26.000    0.000 >
                  a3 = <    0.000    0.000   26.000 >
      reciprocal: b1 = <    0.242    0.000    0.000 >
                  b2 = <    0.000    0.242    0.000 >
                  b3 = <    0.000    0.000    0.242 >
      lattice:    a =      26.000 b =     26.000 c =      26.000
                  alpha =  90.000 beta =  90.000 gamma =  90.000
      density cutoff = 60.000 fft =  96 x   96 x   96  (  195216 waves    97608 per task)
      wavefnc cutoff = 30.000 fft =  96 x   96 x   96  (   69013 waves    34507 per task)

 Ewald parameters:
      energy cutoff =  60.000 fft =  96 x   96 x   96  (  195216 waves    97608 per task)
      Ewald summation: cut radius =   8.276 and   1
                       Mandelung Wigner-Seitz =  1.76011888 (alpha =  2.83729748 rs = 16.12910517)

 technical parameters:
      fixed step: time step =        5.80  ficticious mass =   400000.00
      tolerance =   1.000e-09 (energy)    1.000e+00 (density)    1.000e-04 (ion)
      max iterations =       1000 (   10 inner   100 outer)
      minimizer = Grassmann conjugate gradient



     ============ Grassmann conjugate gradient iteration ============
          >>> iteration started at Mon Feb 20 13:00:25 2023  <<<
     iter.                 Energy          DeltaE        DeltaRho
     ----------------------------------------------------------------
        10      -1.719873455954e+01   -9.002363e-10    1.652790e-11
     *** tolerance ok. iteration terminated
          >>> iteration ended at   Mon Feb 20 13:00:29 2023  <<<

     ==============  energy results (Molecule object)  ==============


 number of electrons: spin up=     4.00000  down=     4.00000 (real space)


 APC Potential:
   0.032333312   0.018553820   0.019254068

 APC Point Charges:
  -0.742896600   0.372369363   0.370527237


 total     energy    :   -1.7198734560e+01 (   -5.73291e+00 /ion)
 total orbital energy:   -4.1187908835e+00 (   -1.02970e+00 /electron)
 hartree energy      :    1.8012266744e+01 (    4.50307e+00 /electron)
 exc-corr energy     :   -4.2446829039e+00 (   -1.06117e+00 /electron)
 APC energy          :   -9.9772770239e-03 (   -3.32576e-03 /ion)
 ion-ion energy      :    3.5958632816e+00 (    1.19862e+00 /ion)

 kinetic (planewave) :    1.2411184746e+01 (    3.10280e+00 /electron)
 V_local (planewave) :   -4.5792534956e+01 (   -1.14481e+01 /electron)
 V_nl    (planewave) :   -1.2573146458e+00 (   -3.14329e-01 /electron)
 V_Coul  (planewave) :    3.6024533487e+01 (    9.00613e+00 /electron)
 V_xc    (planewave) :   -5.5046595151e+00 (   -1.37616e+00 /electron)
 K.S. V_APC energy   :   -8.6460451910e-02 (   -2.88202e-02 /ion)
 Viral Coefficient   :   -1.3318612178e+00

 orbital energy:
    -2.7472182e-01 (  -7.476eV)
    -3.4404031e-01 (  -9.362eV)
    -5.0657672e-01 ( -13.785eV)
    -9.3405660e-01 ( -25.417eV)

== Center of Charge ==

spin up    = (    0.3274    -0.1283    -0.0912 )
spin down  = (    0.3274    -0.1283    -0.0912 )
     total = (    0.3274    -0.1283    -0.0912 )
ionic      = (    0.3418    -0.1460    -0.1893 )

== Molecular Dipole wrt Center of Mass ==

mu   = (    0.1155    -0.1411    -0.7846 ) au
|mu| =      0.8055 au (     2.0472 Debye )


 Ion Forces (au):
   1 O	(    0.00022   -0.00158    0.00544 )
   2 H	(   -0.00091   -0.00162   -0.00217 )
   3 H	(    0.00230    0.00171   -0.00146 )



*************************************************************
**                                                         **
**          PSPW Atomic Point Charge (APC) Analysis        **
**                                                         **
**   Point charge analysis based on paper by P.E. Blochl   **
**         (J. Chem. Phys. vol 103, page 7422, 1995)       **
**                                                         **
*************************************************************

 nwpw_APC object
 ---------------
 nga =   3 ngs =     9
 Gc  =   2.50000
 APC gamma: 0 0.60000
 APC gamma: 1 0.90000
 APC gamma: 2 1.35000
 - self-consistent

 APC Potential:
   0.032333312   0.018553820   0.019254068

 APC Point Charges:
  -0.742896600   0.372369363   0.370527237


 charge analysis on each atom
 ----------------------------

      no  atom        Qelc        Qion      Qtotal
   -----  ----     -------     -------     -------
       1    O       -6.743       6.000      -0.743
       2    H       -0.628       1.000       0.372
       3    H       -0.629       1.000       0.371
       Total Q      -8.000       8.000       0.000


 Gaussian coefficients of model density
 --------------------------------------

      no  atom     g=0.000     g=0.600     g=0.900     g=1.350
   -----  ----     -------     -------     -------     -------
       1     O       6.000      -1.099      -2.073      -3.571
       2     H       1.000      -0.718       0.775      -0.685
       3     H       1.000      -0.718       0.778      -0.689


 output psi to filename: ./nwchemex.movecs

 -----------------
 cputime in seconds
 prologue    : 1.928e-01
 main loop   : 4.538e+00
 epilogue    : 8.852e-02
 total       : 4.819e+00
 cputime/step: 2.269e-01 ( 20 evaluations, 6 linesearches)

 Time spent doing      total        step             percent
 total time            7.446701e+01 3.723351e+00     100.00%
 total FFT time        2.832434e+01 1.416217e+00      38.04%
 lagrange multipliers  2.714469e-02 1.357234e-03       0.04%
 local potentials      3.962394e-01 1.981197e-02       0.53%
 non-local potentials  1.792085e+00 8.960425e-02       2.41%
 ffm_dgemm             6.178273e-01 3.089137e-02       0.83%
 fmf_dgemm             7.048099e-01 3.524049e-02       0.95%
 m_diagonalize         1.528387e-03 7.641935e-05       0.00%
 mmm_multiply          1.662550e-04 8.312750e-06       0.00%
 SCVtrans              5.738570e-04 2.869285e-05       0.00%

 >>> job completed at     Mon Feb 20 13:00:29 2023 <<<
          *****************************************************
          *                                                   *
          *               PWDFT PSPW Calculation              *
          *                                                   *
          *  [ (Grassmann/Stiefel manifold implementation) ]  *
          *  [              C++ implementation             ]  *
          *                                                   *
          *              version #7.00   02/27/21             *
          *                                                   *
          *    This code was developed by Eric J. Bylaska,    *
          *    Abhishek Bagusetty, David H. Bross, ...        *
          *                                                   *
          *****************************************************
          >>> job started at       Mon Feb 20 13:00:29 2023 <<<

 psp_library: /home/sjplimp/nwchem/PWDFT/Nwpw/libraryps



 initializing nwpw_APC object
 ----------------------------
 nga =   3 ngs =     9
 Gc  =   2.50000
 APC gamma: 0 0.60000
 APC gamma: 1 0.90000
 APC gamma: 2 1.35000
 APC u:        1         0.03241
 APC u:        2         0.01859
 APC u:        3         0.01929
 - self-consistent

 reading formatted psp filename: ./O.vpp

 reading formatted psp filename: ./H.vpp
 input psi exists, reading from file: ./nwchemex.movecs

          ==============  summary of input  ==================

 input psi filename: ./nwchemex.movecs

 number of processors used: 2
 processor grid           : 2 x1
 parallel mapping         : 2d-hcurve
 parallel mapping         : balanced

 options:
   boundary conditions  = periodic
   electron spin        = restricted
   exchange-correlation = PBE96 (White and Bird) parameterization

 elements involved in the cluster:
      1: O   valence charge =  6.0  lmax =2
             comment = Parameterized (Chem.Phys.Lett., vol 322, page 447) Hamman psp 
             pseudopotential type            =  0
             highest angular component       =  2
             local potential used            =  2
             number of non-local projections =  4
             cutoff =    0.700   0.700   0.700
      2: H   valence charge =  1.0  lmax =1
             comment = Parameterized (Chem.Phys.Lett., vol 322, page 447) Hamman psp 
             pseudopotential type            =  0
             highest angular component       =  1
             local potential used            =  1
             number of non-local projections =  1
             cutoff =    0.800   0.800

 total charge =   0.000

 atom composition:
   O : 1   H : 2

 initial ion positions (au):
   1 O	(    0.30529   -0.10000    0.06280 ) - atomic mass = 15.995
   2 H	(    1.51764    0.69732   -0.96764 ) - atomic mass =  1.008
   3 H	(   -0.61488   -1.26524   -0.92385 ) - atomic mass =  1.008
   G.C.	(    0.40268   -0.22264   -0.60956 )
 C.O.M.	(    0.32164   -0.12059   -0.05009 )

 real space Electric field:
     Electric Field (au) = (   0.00000    0.00000    0.00000 )
             Center (au) = (   0.00000    0.00000    0.00000 )


 number of electrons: spin up =     4 (   4 per task) down =     4 (   4 per task)

 supercell:
      volume =   17575.98
      lattice:    a1 = <   26.000    0.000    0.000 >
                  a2 = <    0.000   26.000    0.000 >
                  a3 = <    0.000    0.000   26.000 >
      reciprocal: b1 = <    0.242    0.000    0.000 >
                  b2 = <    0.000    0.242    0.000 >
                  b3 = <    0.000    0.000    0.242 >
      lattice:    a =      26.000 b =     26.000 c =      26.000
                  alpha =  90.000 beta =  90.000 gamma =  90.000
      density cutoff = 60.000 fft =  96 x   96 x   96  (  195216 waves    97608 per task)
      wavefnc cutoff = 30.000 fft =  96 x   96 x   96  (   69013 waves    34507 per task)

 Ewald parameters:
      energy cutoff =  60.000 fft =  96 x   96 x   96  (  195216 waves    97608 per task)
      Ewald summation: cut radius =   8.276 and   1
                       Mandelung Wigner-Seitz =  1.76011888 (alpha =  2.83729748 rs = 16.12910517)

 technical parameters:
      fixed step: time step =        5.80  ficticious mass =   400000.00
      tolerance =   1.000e-09 (energy)    1.000e+00 (density)    1.000e-04 (ion)
      max iterations =       1000 (   10 inner   100 outer)
      minimizer = Grassmann conjugate gradient



     ============ Grassmann conjugate gradient iteration ============
          >>> iteration started at Mon Feb 20 13:00:30 2023  <<<
     iter.                 Energy          DeltaE        DeltaRho
     ----------------------------------------------------------------
        10      -1.719876252297e+01   -8.461818e-10    1.395325e-11
     *** tolerance ok. iteration terminated
          >>> iteration ended at   Mon Feb 20 13:00:35 2023  <<<

     ==============  energy results (Molecule object)  ==============


 number of electrons: spin up=     4.00000  down=     4.00000 (real space)


 APC Potential:
   0.032405008   0.018589332   0.019290258

 APC Point Charges:
  -0.743037468   0.372435991   0.370601477


 total     energy    :   -1.7198762523e+01 (   -5.73292e+00 /ion)
 total orbital energy:   -4.1188886919e+00 (   -1.02972e+00 /electron)
 hartree energy      :    1.8012034339e+01 (    4.50301e+00 /electron)
 exc-corr energy     :   -4.2446405558e+00 (   -1.06116e+00 /electron)
 APC energy          :   -1.0005800955e-02 (   -3.33527e-03 /ion)
 ion-ion energy      :    3.5955258998e+00 (    1.19851e+00 /ion)

 kinetic (planewave) :    1.2410979437e+01 (    3.10274e+00 /electron)
 V_local (planewave) :   -4.5792100254e+01 (   -1.14480e+01 /electron)
 V_nl    (planewave) :   -1.2572322157e+00 (   -3.14308e-01 /electron)
 V_Coul  (planewave) :    3.6024068679e+01 (    9.00602e+00 /electron)
 V_xc    (planewave) :   -5.5046043378e+00 (   -1.37615e+00 /electron)
 K.S. V_APC energy   :   -8.6676627332e-02 (   -2.88922e-02 /ion)
 Viral Coefficient   :   -1.3318745884e+00

 orbital energy:
    -2.7474275e-01 (  -7.476eV)
    -3.4409137e-01 (  -9.363eV)
    -5.0654778e-01 ( -13.784eV)
[...]
   -----  ----     -------     -------     -------
       1    O       -6.743       6.000      -0.743
       2    H       -0.627       1.000       0.373
       3    H       -0.629       1.000       0.371
       Total Q      -8.000       8.000      -0.000


 Gaussian coefficients of model density
 --------------------------------------

      no  atom     g=0.000     g=0.600     g=0.900     g=1.350
   -----  ----     -------     -------     -------     -------
       1     O       6.000      -1.101      -2.067      -3.575
       2     H       1.000      -0.717       0.774      -0.684
       3     H       1.000      -0.718       0.776      -0.688


 output psi to filename: ./nwchemex.movecs

 -----------------
 cputime in seconds
 prologue    : 1.931e-01
 main loop   : 5.672e+00
 epilogue    : 8.884e-02
 total       : 5.954e+00
 cputime/step: 2.269e-01 ( 25 evaluations, 8 linesearches)

 Time spent doing      total        step             percent
 total time            9.194512e+01 3.677805e+00     100.00%
 total FFT time        3.481826e+01 1.392731e+00      37.87%
 lagrange multipliers  2.714469e-02 1.085788e-03       0.03%
 local potentials      5.336301e-01 2.134520e-02       0.58%
 non-local potentials  2.181308e+00 8.725233e-02       2.37%
 ffm_dgemm             7.530801e-01 3.012321e-02       0.82%
 fmf_dgemm             8.723730e-01 3.489492e-02       0.95%
 m_diagonalize         1.754364e-03 7.017456e-05       0.00%
 mmm_multiply          1.935130e-04 7.740520e-06       0.00%
 SCVtrans              6.530430e-04 2.612172e-05       0.00%

 >>> job completed at     Mon Feb 20 13:00:47 2023 <<<
          *****************************************************
          *                                                   *
          *               PWDFT PSPW Calculation              *
          *                                                   *
          *  [ (Grassmann/Stiefel manifold implementation) ]  *
          *  [              C++ implementation             ]  *
          *                                                   *
          *              version #7.00   02/27/21             *
          *                                                   *
          *    This code was developed by Eric J. Bylaska,    *
          *    Abhishek Bagusetty, David H. Bross, ...        *
          *                                                   *
          *****************************************************
          >>> job started at       Mon Feb 20 13:00:47 2023 <<<

 psp_library: /home/sjplimp/nwchem/PWDFT/Nwpw/libraryps



 initializing nwpw_APC object
 ----------------------------
 nga =   3 ngs =     9
 Gc  =   2.50000
 APC gamma: 0 0.60000
 APC gamma: 1 0.90000
 APC gamma: 2 1.35000
 APC u:        1         0.03269
 APC u:        2         0.01873
 APC u:        3         0.01944
 - self-consistent

 reading formatted psp filename: ./O.vpp

 reading formatted psp filename: ./H.vpp
 input psi exists, reading from file: ./nwchemex.movecs

          ==============  summary of input  ==================

 input psi filename: ./nwchemex.movecs

 number of processors used: 2
 processor grid           : 2 x1
 parallel mapping         : 2d-hcurve
 parallel mapping         : balanced

 options:
   boundary conditions  = periodic
   electron spin        = restricted
   exchange-correlation = PBE96 (White and Bird) parameterization

 elements involved in the cluster:
      1: O   valence charge =  6.0  lmax =2
             comment = Parameterized (Chem.Phys.Lett., vol 322, page 447) Hamman psp 
             pseudopotential type            =  0
             highest angular component       =  2
             local potential used            =  2
             number of non-local projections =  4
             cutoff =    0.700   0.700   0.700
      2: H   valence charge =  1.0  lmax =1
             comment = Parameterized (Chem.Phys.Lett., vol 322, page 447) Hamman psp 
             pseudopotential type            =  0
             highest angular component       =  1
             local potential used            =  1
             number of non-local projections =  1
             cutoff =    0.800   0.800

 total charge =   0.000

 atom composition:
   O : 1   H : 2

 initial ion positions (au):
   1 O	(    0.30528   -0.10000    0.06294 ) - atomic mass = 15.995
   2 H	(    1.51774    0.69702   -0.96856 ) - atomic mass =  1.008
   3 H	(   -0.61443   -1.26514   -0.92461 ) - atomic mass =  1.008
   G.C.	(    0.40286   -0.22271   -0.61007 )
 C.O.M.	(    0.32166   -0.12060   -0.05005 )

 real space Electric field:
     Electric Field (au) = (   0.00000    0.00000    0.00000 )
             Center (au) = (   0.00000    0.00000    0.00000 )


 number of electrons: spin up =     4 (   4 per task) down =     4 (   4 per task)

 supercell:
      volume =   17575.98
      lattice:    a1 = <   26.000    0.000    0.000 >
                  a2 = <    0.000   26.000    0.000 >
                  a3 = <    0.000    0.000   26.000 >
      reciprocal: b1 = <    0.242    0.000    0.000 >
                  b2 = <    0.000    0.242    0.000 >
                  b3 = <    0.000    0.000    0.242 >
      lattice:    a =      26.000 b =     26.000 c =      26.000
                  alpha =  90.000 beta =  90.000 gamma =  90.000
      density cutoff = 60.000 fft =  96 x   96 x   96  (  195216 waves    97608 per task)
      wavefnc cutoff = 30.000 fft =  96 x   96 x   96  (   69013 waves    34507 per task)

 Ewald parameters:
      energy cutoff =  60.000 fft =  96 x   96 x   96  (  195216 waves    97608 per task)
      Ewald summation: cut radius =   8.276 and   1
                       Mandelung Wigner-Seitz =  1.76011888 (alpha =  2.83729748 rs = 16.12910517)

 technical parameters:
      fixed step: time step =        5.80  ficticious mass =   400000.00
      tolerance =   1.000e-09 (energy)    1.000e+00 (density)    1.000e-04 (ion)
      max iterations =       1000 (   10 inner   100 outer)
      minimizer = Grassmann conjugate gradient



     ============ Grassmann conjugate gradient iteration ============
          >>> iteration started at Mon Feb 20 13:00:47 2023  <<<
     iter.                 Energy          DeltaE        DeltaRho
     ----------------------------------------------------------------
        10      -1.719887486952e+01   -7.188135e-10    8.388433e-12
     *** tolerance ok. iteration terminated
          >>> iteration ended at   Mon Feb 20 13:00:53 2023  <<<

     ==============  energy results (Molecule object)  ==============


 number of electrons: spin up=     4.00000  down=     4.00000 (real space)


 APC Potential:
   0.032692607   0.018731490   0.019435046

 APC Point Charges:
  -0.743603917   0.372702677   0.370901241


 total     energy    :   -1.7198874870e+01 (   -5.73296e+00 /ion)
 total orbital energy:   -4.1192579514e+00 (   -1.02981e+00 /electron)
 hartree energy      :    1.8011125306e+01 (    4.50278e+00 /electron)
 exc-corr energy     :   -4.2444759539e+00 (   -1.06112e+00 /electron)
 APC energy          :   -1.0120591006e-02 (   -3.37353e-03 /ion)
 ion-ion energy      :    3.5941707474e+00 (    1.19806e+00 /ion)

 kinetic (planewave) :    1.2410179676e+01 (    3.10254e+00 /electron)
 V_local (planewave) :   -4.5790391092e+01 (   -1.14476e+01 /electron)
 V_nl    (planewave) :   -1.2569072636e+00 (   -3.14227e-01 /electron)
 V_Coul  (planewave) :    3.6022250612e+01 (    9.00556e+00 /electron)
 V_xc    (planewave) :   -5.5043898840e+00 (   -1.37610e+00 /electron)
 K.S. V_APC energy   :   -8.7544301393e-02 (   -2.91814e-02 /ion)
 Viral Coefficient   :   -1.3319257302e+00

 orbital energy:
    -2.7482381e-01 (  -7.478eV)
    -3.4429460e-01 (  -9.369eV)
    -5.0642683e-01 ( -13.781eV)
    -9.3408373e-01 ( -25.418eV)

== Center of Charge ==

spin up    = (    0.3274    -0.1283    -0.0911 )
spin down  = (    0.3274    -0.1283    -0.0911 )
     total = (    0.3274    -0.1283    -0.0911 )
ionic      = (    0.3419    -0.1460    -0.1894 )

== Molecular Dipole wrt Center of Mass ==

mu   = (    0.1158    -0.1414    -0.7864 ) au
|mu| =      0.8074 au (     2.0520 Debye )


 Ion Forces (au):
   1 O	(    0.00043   -0.00152    0.00500 )
   2 H	(   -0.00109   -0.00170   -0.00190 )
   3 H	(    0.00228    0.00174   -0.00131 )



*************************************************************
**                                                         **
**          PSPW Atomic Point Charge (APC) Analysis        **
**                                                         **
**   Point charge analysis based on paper by P.E. Blochl   **
**         (J. Chem. Phys. vol 103, page 7422, 1995)       **
**                                                         **
*************************************************************

 nwpw_APC object
 ---------------
 nga =   3 ngs =     9
 Gc  =   2.50000
 APC gamma: 0 0.60000
 APC gamma: 1 0.90000
 APC gamma: 2 1.35000
 - self-consistent

 APC Potential:
   0.032692607   0.018731490   0.019435046

 APC Point Charges:
  -0.743603917   0.372702677   0.370901241


 charge analysis on each atom
 ----------------------------

      no  atom        Qelc        Qion      Qtotal
   -----  ----     -------     -------     -------
       1    O       -6.744       6.000      -0.744
       2    H       -0.627       1.000       0.373
       3    H       -0.629       1.000       0.371
       Total Q      -8.000       8.000       0.000


 Gaussian coefficients of model density
 --------------------------------------

      no  atom     g=0.000     g=0.600     g=0.900     g=1.350
   -----  ----     -------     -------     -------     -------
       1     O       6.000      -1.103      -2.065      -3.576
       2     H       1.000      -0.717       0.773      -0.684
       3     H       1.000      -0.717       0.776      -0.688


 output psi to filename: ./nwchemex.movecs

 -----------------
 cputime in seconds
 prologue    : 1.938e-01
 main loop   : 6.350e+00
 epilogue    : 8.858e-02
 total       : 6.632e+00
 cputime/step: 2.268e-01 ( 28 evaluations, 9 linesearches)

 Time spent doing      total        step             percent
 total time            9.860680e+01 3.521671e+00     100.00%
 total FFT time        3.731012e+01 1.332504e+00      37.84%
 lagrange multipliers  2.714469e-02 9.694531e-04       0.03%
 local potentials      5.853232e-01 2.090440e-02       0.59%
 non-local potentials  2.328379e+00 8.315638e-02       2.36%
 ffm_dgemm             8.055526e-01 2.876974e-02       0.82%
 fmf_dgemm             9.376022e-01 3.348579e-02       0.95%
 m_diagonalize         1.842259e-03 6.579496e-05       0.00%
 mmm_multiply          2.067880e-04 7.385286e-06       0.00%
 SCVtrans              6.823070e-04 2.436811e-05       0.00%

 >>> job completed at     Mon Feb 20 13:00:54 2023 <<<
          *****************************************************
          *                                                   *
          *               PWDFT PSPW Calculation              *
          *                                                   *
          *  [ (Grassmann/Stiefel manifold implementation) ]  *
          *  [              C++ implementation             ]  *
          *                                                   *
          *              version #7.00   02/27/21             *
          *                                                   *
          *    This code was developed by Eric J. Bylaska,    *
          *    Abhishek Bagusetty, David H. Bross, ...        *
          *                                                   *
          *****************************************************
          >>> job started at       Mon Feb 20 13:00:54 2023 <<<

 psp_library: /home/sjplimp/nwchem/PWDFT/Nwpw/libraryps



 initializing nwpw_APC object
 ----------------------------
 nga =   3 ngs =     9
 Gc  =   2.50000
 APC gamma: 0 0.60000
 APC gamma: 1 0.90000
 APC gamma: 2 1.35000
 APC u:        1         0.03281
 APC u:        2         0.01879
 APC u:        3         0.01949
 - self-consistent

 reading formatted psp filename: ./O.vpp

 reading formatted psp filename: ./H.vpp
 input psi exists, reading from file: ./nwchemex.movecs

          ==============  summary of input  ==================

 input psi filename: ./nwchemex.movecs

 number of processors used: 2
 processor grid           : 2 x1
 parallel mapping         : 2d-hcurve
 parallel mapping         : balanced

 options:
   boundary conditions  = periodic
   electron spin        = restricted
   exchange-correlation = PBE96 (White and Bird) parameterization

 elements involved in the cluster:
      1: O   valence charge =  6.0  lmax =2
             comment = Parameterized (Chem.Phys.Lett., vol 322, page 447) Hamman psp 
             pseudopotential type            =  0
             highest angular component       =  2
             local potential used            =  2
             number of non-local projections =  4
             cutoff =    0.700   0.700   0.700
      2: H   valence charge =  1.0  lmax =1
             comment = Parameterized (Chem.Phys.Lett., vol 322, page 447) Hamman psp 
             pseudopotential type            =  0
             highest angular component       =  1
             local potential used            =  1
             number of non-local projections =  1
             cutoff =    0.800   0.800

 total charge =   0.000

 atom composition:
   O : 1   H : 2

 initial ion positions (au):
   1 O	(    0.30527   -0.10001    0.06300 ) - atomic mass = 15.995
   2 H	(    1.51778    0.69689   -0.96894 ) - atomic mass =  1.008
   3 H	(   -0.61424   -1.26510   -0.92492 ) - atomic mass =  1.008
   G.C.	(    0.40294   -0.22274   -0.61029 )
 C.O.M.	(    0.32167   -0.12061   -0.05004 )

 real space Electric field:
     Electric Field (au) = (   0.00000    0.00000    0.00000 )
             Center (au) = (   0.00000    0.00000    0.00000 )


 number of electrons: spin up =     4 (   4 per task) down =     4 (   4 per task)

 supercell:
      volume =   17575.98
      lattice:    a1 = <   26.000    0.000    0.000 >
                  a2 = <    0.000   26.000    0.000 >
                  a3 = <    0.000    0.000   26.000 >
      reciprocal: b1 = <    0.242    0.000    0.000 >
                  b2 = <    0.000    0.242    0.000 >
                  b3 = <    0.000    0.000    0.242 >
      lattice:    a =      26.000 b =     26.000 c =      26.000
                  alpha =  90.000 beta =  90.000 gamma =  90.000
      density cutoff = 60.000 fft =  96 x   96 x   96  (  195216 waves    97608 per task)
      wavefnc cutoff = 30.000 fft =  96 x   96 x   96  (   69013 waves    34507 per task)

 Ewald parameters:
      energy cutoff =  60.000 fft =  96 x   96 x   96  (  195216 waves    97608 per task)
      Ewald summation: cut radius =   8.276 and   1
                       Mandelung Wigner-Seitz =  1.76011888 (alpha =  2.83729748 rs = 16.12910517)

 technical parameters:
      fixed step: time step =        5.80  ficticious mass =   400000.00
      tolerance =   1.000e-09 (energy)    1.000e+00 (density)    1.000e-04 (ion)
      max iterations =       1000 (   10 inner   100 outer)
      minimizer = Grassmann conjugate gradient



     ============ Grassmann conjugate gradient iteration ============
          >>> iteration started at Mon Feb 20 13:00:54 2023  <<<
     iter.                 Energy          DeltaE        DeltaRho
     ----------------------------------------------------------------
        10      -1.719892131617e+01   -7.871641e-10    8.418533e-12
     *** tolerance ok. iteration terminated
          >>> iteration ended at   Mon Feb 20 13:01:00 2023  <<<

     ==============  energy results (Molecule object)  ==============


 number of electrons: spin up=     4.00000  down=     4.00000 (real space)


 APC Potential:
   0.032811295   0.018790019   0.019494618

 APC Point Charges:
  -0.743829313   0.372810247   0.371019065


 total     energy    :   -1.7198921316e+01 (   -5.73297e+00 /ion)
 total orbital energy:   -4.1194089039e+00 (   -1.02985e+00 /electron)
 hartree energy      :    1.8010750921e+01 (    4.50269e+00 /electron)
 exc-corr energy     :   -4.2444081450e+00 (   -1.06110e+00 /electron)
 APC energy          :   -1.0168016807e-02 (   -3.38934e-03 /ion)
 ion-ion energy      :    3.5936106097e+00 (    1.19787e+00 /ion)

 kinetic (planewave) :    1.2409848827e+01 (    3.10246e+00 /electron)
 V_local (planewave) :   -4.5789685203e+01 (   -1.14474e+01 /electron)
 V_nl    (planewave) :   -1.2567727989e+00 (   -3.14193e-01 /electron)
 V_Coul  (planewave) :    3.6021501842e+01 (    9.00538e+00 /electron)
 V_xc    (planewave) :   -5.5043015709e+00 (   -1.37608e+00 /electron)
 K.S. V_APC energy   :   -8.7902490130e-02 (   -2.93008e-02 /ion)
 Viral Coefficient   :   -1.3319467434e+00

 orbital energy:
    -2.7485717e-01 (  -7.479eV)
    -3.4437897e-01 (  -9.371eV)
    -5.0637576e-01 ( -13.779eV)
    -9.3409255e-01 ( -25.418eV)

== Center of Charge ==

spin up    = (    0.3274    -0.1283    -0.0911 )
spin down  = (    0.3274    -0.1283    -0.0911 )
     total = (    0.3274    -0.1283    -0.0911 )
ionic      = (    0.3419    -0.1460    -0.1895 )

== Molecular Dipole wrt Center of Mass ==

mu   = (    0.1159    -0.1415    -0.7870 ) au
|mu| =      0.8080 au (     2.0536 Debye )


 Ion Forces (au):
   1 O	(    0.00050   -0.00151    0.00486 )
   2 H	(   -0.00115   -0.00172   -0.00181 )
   3 H	(    0.00228    0.00175   -0.00126 )



*************************************************************
**                                                         **
**          PSPW Atomic Point Charge (APC) Analysis        **
**                                                         **
**   Point charge analysis based on paper by P.E. Blochl   **
**         (J. Chem. Phys. vol 103, page 7422, 1995)       **
**                                                         **
*************************************************************

 nwpw_APC object
 ---------------
 nga =   3 ngs =     9
 Gc  =   2.50000
 APC gamma: 0 0.60000
 APC gamma: 1 0.90000
 APC gamma: 2 1.35000
 - self-consistent

 APC Potential:
   0.032811295   0.018790019   0.019494618

 APC Point Charges:
  -0.743829313   0.372810247   0.371019065


 charge analysis on each atom
 ----------------------------

      no  atom        Qelc        Qion      Qtotal
   -----  ----     -------     -------     -------
       1    O       -6.744       6.000      -0.744
       2    H       -0.627       1.000       0.373
       3    H       -0.629       1.000       0.371
       Total Q      -8.000       8.000      -0.000


 Gaussian coefficients of model density
 --------------------------------------

      no  atom     g=0.000     g=0.600     g=0.900     g=1.350
   -----  ----     -------     -------     -------     -------
       1     O       6.000      -1.104      -2.063      -3.577
       2     H       1.000      -0.717       0.773      -0.683
       3     H       1.000      -0.717       0.775      -0.687


 output psi to filename: ./nwchemex.movecs

 -----------------
 cputime in seconds
 prologue    : 1.925e-01
 main loop   : 6.583e+00
 epilogue    : 8.882e-02
 total       : 6.864e+00
 cputime/step: 2.270e-01 ( 29 evaluations, 9 linesearches)

 Time spent doing      total        step             percent
 total time            1.055024e+02 3.638015e+00     100.00%
 total FFT time        3.989664e+01 1.375746e+00      37.82%
 lagrange multipliers  2.714469e-02 9.360237e-04       0.03%
 local potentials      6.390493e-01 2.203618e-02       0.61%
 non-local potentials  2.480554e+00 8.553635e-02       2.35%
 ffm_dgemm             8.586655e-01 2.960916e-02       0.81%
 fmf_dgemm             1.003600e+00 3.460691e-02       0.95%
 m_diagonalize         1.931024e-03 6.658703e-05       0.00%
 mmm_multiply          2.167160e-04 7.472966e-06       0.00%
 SCVtrans              7.112570e-04 2.452610e-05       0.00%

 >>> job completed at     Mon Feb 20 13:01:00 2023 <<<
