          *****************************************************
          *                                                   *
          *               PWDFT PSPW Calculation              *
          *                                                   *
          *  [ (Grassmann/Stiefel manifold implementation) ]  *
          *  [              C++ implementation             ]  *
          *                                                   *
          *              version #7.00   02/27/21             *
          *                                                   *
          *    This code was developed by Eric J. Bylaska,    *
          *    Abhishek Bagusetty, David H. Bross, ...        *
          *                                                   *
          *****************************************************
          >>> job started at       Mon Feb 20 12:56:54 2023 <<<

 psp_library: /home/sjplimp/nwchem/PWDFT/Nwpw/libraryps



 initializing nwpw_APC object
 ----------------------------
 nga =   3 ngs =     9
 Gc  =   2.50000
 APC gamma: 0 0.60000
 APC gamma: 1 0.90000
 APC gamma: 2 1.35000
 - not self-consistent

 writing formatted psp filename: ./O.vpp

 writing formatted psp filename: ./H.vpp
 generating random psi from scratch
 Warning - Gram-Schmidt being performed on psi2
         - exact norm = 8.00000 norm=8.87324 corrected norm=8.00000 (error=0.87324)

          ==============  summary of input  ==================

 input psi filename: ./nwchemex.movecs

 number of processors used: 2
 processor grid           : 2 x1
 parallel mapping         : 2d-hcurve
 parallel mapping         : balanced

 options:
   boundary conditions  = periodic
   electron spin        = restricted
   exchange-correlation = PBE96 (White and Bird) parameterization

 elements involved in the cluster:
      1: O   valence charge =  6.0  lmax =2
             comment = Parameterized (Chem.Phys.Lett., vol 322, page 447) Hamman psp 
             pseudopotential type            =  0
             highest angular component       =  2
             local potential used            =  2
             number of non-local projections =  4
             cutoff =    0.700   0.700   0.700
      2: H   valence charge =  1.0  lmax =1
             comment = Parameterized (Chem.Phys.Lett., vol 322, page 447) Hamman psp 
             pseudopotential type            =  0
             highest angular component       =  1
             local potential used            =  1
             number of non-local projections =  1
             cutoff =    0.800   0.800

 total charge =   0.000

 atom composition:
   O : 1   H : 2

 initial ion positions (au):
   1 O	(    0.30530   -0.09999    0.06269 ) - atomic mass = 15.995
   2 H	(    1.51755    0.69756   -0.96690 ) - atomic mass =  1.008
   3 H	(   -0.61524   -1.26531   -0.92324 ) - atomic mass =  1.008
   G.C.	(    0.40254   -0.22258   -0.60915 )
 C.O.M.	(    0.32163   -0.12057   -0.05011 )

 real space Electric field:
     Electric Field (au) = (   0.00000    0.00000    0.00000 )
             Center (au) = (   0.00000    0.00000    0.00000 )


 number of electrons: spin up =     4 (   4 per task) down =     4 (   4 per task)

 supercell:
      volume =   17575.98
      lattice:    a1 = <   26.000    0.000    0.000 >
                  a2 = <    0.000   26.000    0.000 >
                  a3 = <    0.000    0.000   26.000 >
      reciprocal: b1 = <    0.242    0.000    0.000 >
                  b2 = <    0.000    0.242    0.000 >
                  b3 = <    0.000    0.000    0.242 >
      lattice:    a =      26.000 b =     26.000 c =      26.000
                  alpha =  90.000 beta =  90.000 gamma =  90.000
      density cutoff = 20.000 fft =  54 x   54 x   54  (   37447 waves    18724 per task)
      wavefnc cutoff = 10.000 fft =  54 x   54 x   54  (   13373 waves     6687 per task)

 Ewald parameters:
      energy cutoff =  20.000 fft =  54 x   54 x   54  (   37447 waves    18724 per task)
      Ewald summation: cut radius =   8.276 and   1
                       Mandelung Wigner-Seitz =  1.76011888 (alpha =  2.83729748 rs = 16.12910517)

 technical parameters:
      fixed step: time step =        5.80  ficticious mass =   400000.00
      tolerance =   1.000e-09 (energy)    1.000e+00 (density)    1.000e-04 (ion)
      max iterations =       1000 (   10 inner   100 outer)
      minimizer = Grassmann conjugate gradient



     ============ Grassmann conjugate gradient iteration ============
          >>> iteration started at Mon Feb 20 12:56:54 2023  <<<
     iter.                 Energy          DeltaE        DeltaRho
     ----------------------------------------------------------------
        - 10 steepest descent iterations performed
        10      -1.282472121153e+01   -9.484109e-01    1.779210e-02
        20      -1.504837267799e+01   -5.497331e-02    3.093676e-04
        30      -1.573162576628e+01   -7.462479e-02    7.497296e-04
        40      -1.613937990909e+01   -1.991498e-02    1.005273e-04
        50      -1.630233932354e+01   -1.501744e-03    1.758004e-04
        60      -1.630525628588e+01   -1.357997e-05    9.037538e-08
        70      -1.630527187384e+01   -6.875138e-08    2.522005e-09
        80      -1.630527202279e+01   -1.101633e-09    1.198576e-11
        90      -1.630527202342e+01   -6.267697e-10    5.596876e-12
     *** tolerance ok. iteration terminated
          >>> iteration ended at   Mon Feb 20 12:57:02 2023  <<<

     ==============  energy results (Molecule object)  ==============


 number of electrons: spin up=     4.00000  down=     4.00000 (real space)


 total     energy    :   -1.6305272023e+01 (   -5.43509e+00 /ion)
 total orbital energy:   -4.4097830748e+00 (   -1.10245e+00 /electron)
 hartree energy      :    1.6681806943e+01 (    4.17045e+00 /electron)
 exc-corr energy     :   -4.0100766982e+00 (   -1.00252e+00 /electron)
 ion-ion energy      :    3.5966388474e+00 (    1.19888e+00 /ion)

 kinetic (planewave) :    9.8614440164e+00 (    2.46536e+00 /electron)
 V_local (planewave) :   -4.2645265382e+01 (   -1.06613e+01 /electron)
 V_nl    (planewave) :    2.1018025023e-01 (    5.25451e-02 /electron)
 V_Coul  (planewave) :    3.3363613885e+01 (    8.34090e+00 /electron)
 V_xc    (planewave) :   -5.1997558448e+00 (   -1.29994e+00 /electron)
 Viral Coefficient   :   -1.4471741732e+00

 orbital energy:
    -2.5264681e-01 (  -6.875eV)
    -3.5265599e-01 (  -9.596eV)
    -5.0406539e-01 ( -13.716eV)
    -1.0955234e+00 ( -29.811eV)

== Center of Charge ==

spin up    = (    0.3337    -0.1357    -0.1342 )
spin down  = (    0.3337    -0.1357    -0.1342 )
     total = (    0.3337    -0.1357    -0.1342 )
ionic      = (    0.3418    -0.1460    -0.1893 )

== Molecular Dipole wrt Center of Mass ==

mu   = (    0.0649    -0.0819    -0.4407 ) au
|mu| =      0.4529 au (     1.1511 Debye )


*************************************************************
**                                                         **
**          PSPW Atomic Point Charge (APC) Analysis        **
**                                                         **
**   Point charge analysis based on paper by P.E. Blochl   **
**         (J. Chem. Phys. vol 103, page 7422, 1995)       **
**                                                         **
*************************************************************

 nwpw_APC object
 ---------------
 nga =   3 ngs =     9
 Gc  =   2.50000
 APC gamma: 0 0.60000
 APC gamma: 1 0.90000
 APC gamma: 2 1.35000
 - not self-consistent


 charge analysis on each atom
 ----------------------------

      no  atom        Qelc        Qion      Qtotal
   -----  ----     -------     -------     -------
       1    O       -6.416       6.000      -0.416
       2    H       -0.792       1.000       0.208
       3    H       -0.792       1.000       0.208
       Total Q      -8.000       8.000       0.000


 Gaussian coefficients of model density
 --------------------------------------

      no  atom     g=0.000     g=0.600     g=0.900     g=1.350
   -----  ----     -------     -------     -------     -------
       1     O       6.000      -0.083      -2.968      -3.365
       2     H       1.000      -0.973       1.287      -1.106
       3     H       1.000      -0.969       1.282      -1.104


 output psi to filename: ./nwchemex.movecs

 -----------------
 cputime in seconds
 prologue    : 7.414e-02
 main loop   : 7.386e+00
 epilogue    : 8.115e-02
 total       : 7.541e+00
 cputime/step: 2.777e-02 ( 266 evaluations, 81 linesearches)

 Time spent doing      total        step             percent
 total time            7.548425e+00 2.837754e-02     100.00%
 total FFT time        2.858014e+00 1.074441e-02      37.86%
 lagrange multipliers  1.130411e-03 4.249665e-06       0.01%
 local potentials      4.969310e-04 1.868162e-06       0.01%
 non-local potentials  2.217145e-01 8.335133e-04       2.94%
 ffm_dgemm             3.650624e-02 1.372415e-04       0.48%
 fmf_dgemm             7.934406e-02 2.982860e-04       1.05%
 m_diagonalize         5.609470e-04 2.108823e-06       0.01%
 mmm_multiply          5.398400e-05 2.029474e-07       0.00%
 SCVtrans              2.167840e-04 8.149774e-07       0.00%

 >>> job completed at     Mon Feb 20 12:57:02 2023 <<<
          *****************************************************
          *                                                   *
          *               PWDFT PSPW Calculation              *
          *                                                   *
          *  [ (Grassmann/Stiefel manifold implementation) ]  *
          *  [              C++ implementation             ]  *
          *                                                   *
          *              version #7.00   02/27/21             *
          *                                                   *
          *    This code was developed by Eric J. Bylaska,    *
          *    Abhishek Bagusetty, David H. Bross, ...        *
          *                                                   *
          *****************************************************
          >>> job started at       Mon Feb 20 12:57:02 2023 <<<

 psp_library: /home/sjplimp/nwchem/PWDFT/Nwpw/libraryps



 initializing nwpw_APC object
 ----------------------------
 nga =   3 ngs =     9
 Gc  =   2.50000
 APC gamma: 0 0.60000
 APC gamma: 1 0.90000
 APC gamma: 2 1.35000
 - not self-consistent

 writing formatted psp filename: ./O.vpp

 writing formatted psp filename: ./H.vpp
 psi grids are being converted: 
 -----------------------------: 
 converting .... psi:1 spin:1
 converting .... psi:2 spin:1
 converting .... psi:3 spin:1
 converting .... psi:4 spin:1

 input psi exists, reading from file: ./nwchemex.movecs

          ==============  summary of input  ==================

 input psi filename: ./nwchemex.movecs

 number of processors used: 2
 processor grid           : 2 x1
 parallel mapping         : 2d-hcurve
 parallel mapping         : balanced

 options:
   boundary conditions  = periodic
   electron spin        = restricted
   exchange-correlation = PBE96 (White and Bird) parameterization

 elements involved in the cluster:
      1: O   valence charge =  6.0  lmax =2
             comment = Parameterized (Chem.Phys.Lett., vol 322, page 447) Hamman psp 
             pseudopotential type            =  0
             highest angular component       =  2
             local potential used            =  2
             number of non-local projections =  4
             cutoff =    0.700   0.700   0.700
      2: H   valence charge =  1.0  lmax =1
             comment = Parameterized (Chem.Phys.Lett., vol 322, page 447) Hamman psp 
             pseudopotential type            =  0
             highest angular component       =  1
             local potential used            =  1
             number of non-local projections =  1
             cutoff =    0.800   0.800

 total charge =   0.000

 atom composition:
   O : 1   H : 2

 initial ion positions (au):
   1 O	(    0.30530   -0.09999    0.06269 ) - atomic mass = 15.995
   2 H	(    1.51755    0.69756   -0.96690 ) - atomic mass =  1.008
   3 H	(   -0.61524   -1.26531   -0.92324 ) - atomic mass =  1.008
   G.C.	(    0.40254   -0.22258   -0.60915 )
 C.O.M.	(    0.32163   -0.12057   -0.05011 )

 real space Electric field:
     Electric Field (au) = (   0.00000    0.00000    0.00000 )
             Center (au) = (   0.00000    0.00000    0.00000 )


 number of electrons: spin up =     4 (   4 per task) down =     4 (   4 per task)

 supercell:
      volume =   17575.98
      lattice:    a1 = <   26.000    0.000    0.000 >
                  a2 = <    0.000   26.000    0.000 >
                  a3 = <    0.000    0.000   26.000 >
      reciprocal: b1 = <    0.242    0.000    0.000 >
                  b2 = <    0.000    0.242    0.000 >
                  b3 = <    0.000    0.000    0.242 >
      lattice:    a =      26.000 b =     26.000 c =      26.000
                  alpha =  90.000 beta =  90.000 gamma =  90.000
      density cutoff = 40.000 fft =  80 x   80 x   80  (  106048 waves    53024 per task)
      wavefnc cutoff = 20.000 fft =  80 x   80 x   80  (   37447 waves    18724 per task)

 Ewald parameters:
      energy cutoff =  40.000 fft =  80 x   80 x   80  (  106048 waves    53024 per task)
      Ewald summation: cut radius =   8.276 and   1
                       Mandelung Wigner-Seitz =  1.76011888 (alpha =  2.83729748 rs = 16.12910517)

 technical parameters:
      fixed step: time step =        5.80  ficticious mass =   400000.00
      tolerance =   1.000e-09 (energy)    1.000e+00 (density)    1.000e-04 (ion)
      max iterations =       1000 (   10 inner   100 outer)
      minimizer = Grassmann conjugate gradient



     ============ Grassmann conjugate gradient iteration ============
          >>> iteration started at Mon Feb 20 12:57:03 2023  <<<
     iter.                 Energy          DeltaE        DeltaRho
     ----------------------------------------------------------------
        - 10 steepest descent iterations performed
        10      -1.709563331682e+01   -6.201474e-04    4.252837e-06
        20      -1.709727702920e+01   -1.395637e-05    2.324058e-07
        30      -1.709728935245e+01   -1.652115e-07    9.383449e-10
        40      -1.709728957157e+01   -1.887361e-09    1.156676e-11
        50      -1.709728957459e+01   -8.626913e-10    2.856988e-12
     *** tolerance ok. iteration terminated
          >>> iteration ended at   Mon Feb 20 12:57:21 2023  <<<

     ==============  energy results (Molecule object)  ==============


 number of electrons: spin up=     4.00000  down=     4.00000 (real space)


 total     energy    :   -1.7097289575e+01 (   -5.69910e+00 /ion)
 total orbital energy:   -4.0996983017e+00 (   -1.02492e+00 /electron)
 hartree energy      :    1.7847984203e+01 (    4.46200e+00 /electron)
 exc-corr energy     :   -4.2204936664e+00 (   -1.05512e+00 /electron)
 ion-ion energy      :    3.5966388474e+00 (    1.19888e+00 /ion)

 kinetic (planewave) :    1.2079256817e+01 (    3.01981e+00 /electron)
 V_local (planewave) :   -4.5359046108e+01 (   -1.13398e+01 /electron)
 V_nl    (planewave) :   -1.0416296672e+00 (   -2.60407e-01 /electron)
 V_Coul  (planewave) :    3.5695968406e+01 (    8.92399e+00 /electron)
 V_xc    (planewave) :   -5.4742477490e+00 (   -1.36856e+00 /electron)
 Viral Coefficient   :   -1.3393998790e+00

 orbital energy:
    -2.6700298e-01 (  -7.266eV)
    -3.3720535e-01 (  -9.176eV)
    -5.0189171e-01 ( -13.657eV)
    -9.4374911e-01 ( -25.681eV)

== Center of Charge ==

spin up    = (    0.3298    -0.1310    -0.1068 )
spin down  = (    0.3298    -0.1310    -0.1068 )
     total = (    0.3298    -0.1310    -0.1068 )
ionic      = (    0.3418    -0.1460    -0.1893 )

== Molecular Dipole wrt Center of Mass ==

mu   = (    0.0958    -0.1200    -0.6599 ) au
|mu| =      0.6776 au (     1.7221 Debye )


*************************************************************
**                                                         **
**          PSPW Atomic Point Charge (APC) Analysis        **
**                                                         **
**   Point charge analysis based on paper by P.E. Blochl   **
**         (J. Chem. Phys. vol 103, page 7422, 1995)       **
**                                                         **
*************************************************************

 nwpw_APC object
 ---------------
 nga =   3 ngs =     9
 Gc  =   2.50000
 APC gamma: 0 0.60000
 APC gamma: 1 0.90000
 APC gamma: 2 1.35000
 - not self-consistent


 charge analysis on each atom
 ----------------------------

      no  atom        Qelc        Qion      Qtotal
   -----  ----     -------     -------     -------
       1    O       -6.631       6.000      -0.631
       2    H       -0.684       1.000       0.316
       3    H       -0.685       1.000       0.315
       Total Q      -8.000       8.000      -0.000


 Gaussian coefficients of model density
 --------------------------------------

      no  atom     g=0.000     g=0.600     g=0.900     g=1.350
   -----  ----     -------     -------     -------     -------
       1     O       6.000      -0.775      -2.618      -3.238
       2     H       1.000      -0.768       0.898      -0.814
       3     H       1.000      -0.766       0.895      -0.814


 output psi to filename: ./nwchemex.movecs

 -----------------
 cputime in seconds
 prologue    : 6.445e-01
 main loop   : 1.828e+01
 epilogue    : 3.521e-02
 total       : 1.896e+01
 cputime/step: 1.243e-01 ( 147 evaluations, 43 linesearches)

 Time spent doing      total        step             percent
 total time            2.675356e+01 1.819970e-01     100.00%
 total FFT time        1.037673e+01 7.059000e-02      38.79%
 lagrange multipliers  7.427833e-03 5.052948e-05       0.03%
 local potentials      2.559497e-03 1.741154e-05       0.01%
 non-local potentials  6.055847e-01 4.119623e-03       2.26%
 ffm_dgemm             1.195172e-01 8.130420e-04       0.45%
 fmf_dgemm             2.443493e-01 1.662240e-03       0.91%
 m_diagonalize         1.001444e-03 6.812544e-06       0.00%
 mmm_multiply          9.446600e-05 6.426259e-07       0.00%
 SCVtrans              3.680540e-04 2.503769e-06       0.00%

 >>> job completed at     Mon Feb 20 12:57:21 2023 <<<
          *****************************************************
          *                                                   *
          *               PWDFT PSPW Calculation              *
          *                                                   *
          *  [ (Grassmann/Stiefel manifold implementation) ]  *
          *  [              C++ implementation             ]  *
          *                                                   *
          *              version #7.00   02/27/21             *
          *                                                   *
          *    This code was developed by Eric J. Bylaska,    *
          *    Abhishek Bagusetty, David H. Bross, ...        *
          *                                                   *
          *****************************************************
          >>> job started at       Mon Feb 20 12:57:21 2023 <<<

 psp_library: /home/sjplimp/nwchem/PWDFT/Nwpw/libraryps



 initializing nwpw_APC object
 ----------------------------
 nga =   3 ngs =     9
 Gc  =   2.50000
 APC gamma: 0 0.60000
 APC gamma: 1 0.90000
 APC gamma: 2 1.35000
 APC u:        1         0.03217
 APC u:        2         0.01847
 APC u:        3         0.01917
 - self-consistent

 writing formatted psp filename: ./O.vpp

 writing formatted psp filename: ./H.vpp
 psi grids are being converted: 
 -----------------------------: 
 converting .... psi:1 spin:1
 converting .... psi:2 spin:1
 converting .... psi:3 spin:1
 converting .... psi:4 spin:1

 input psi exists, reading from file: ./nwchemex.movecs

          ==============  summary of input  ==================

 input psi filename: ./nwchemex.movecs

 number of processors used: 2
 processor grid           : 2 x1
 parallel mapping         : 2d-hcurve
 parallel mapping         : balanced

 options:
   boundary conditions  = periodic
   electron spin        = restricted
   exchange-correlation = PBE96 (White and Bird) parameterization

 elements involved in the cluster:
      1: O   valence charge =  6.0  lmax =2
             comment = Parameterized (Chem.Phys.Lett., vol 322, page 447) Hamman psp 
             pseudopotential type            =  0
             highest angular component       =  2
             local potential used            =  2
             number of non-local projections =  4
             cutoff =    0.700   0.700   0.700
      2: H   valence charge =  1.0  lmax =1
             comment = Parameterized (Chem.Phys.Lett., vol 322, page 447) Hamman psp 
             pseudopotential type            =  0
             highest angular component       =  1
             local potential used            =  1
             number of non-local projections =  1
             cutoff =    0.800   0.800

 total charge =   0.000

 atom composition:
   O : 1   H : 2

 initial ion positions (au):
   1 O	(    0.30530   -0.09999    0.06269 ) - atomic mass = 15.995
   2 H	(    1.51755    0.69756   -0.96690 ) - atomic mass =  1.008
   3 H	(   -0.61524   -1.26531   -0.92324 ) - atomic mass =  1.008
   G.C.	(    0.40254   -0.22258   -0.60915 )
 C.O.M.	(    0.32163   -0.12057   -0.05011 )

 real space Electric field:
     Electric Field (au) = (   0.00000    0.00000    0.00000 )
             Center (au) = (   0.00000    0.00000    0.00000 )


 number of electrons: spin up =     4 (   4 per task) down =     4 (   4 per task)

 supercell:
      volume =   17575.98
      lattice:    a1 = <   26.000    0.000    0.000 >
                  a2 = <    0.000   26.000    0.000 >
                  a3 = <    0.000    0.000   26.000 >
      reciprocal: b1 = <    0.242    0.000    0.000 >
                  b2 = <    0.000    0.242    0.000 >
                  b3 = <    0.000    0.000    0.242 >
      lattice:    a =      26.000 b =     26.000 c =      26.000
                  alpha =  90.000 beta =  90.000 gamma =  90.000
      density cutoff = 60.000 fft =  96 x   96 x   96  (  195216 waves    97608 per task)
      wavefnc cutoff = 30.000 fft =  96 x   96 x   96  (   69013 waves    34507 per task)

 Ewald parameters:
      energy cutoff =  60.000 fft =  96 x   96 x   96  (  195216 waves    97608 per task)
      Ewald summation: cut radius =   8.276 and   1
                       Mandelung Wigner-Seitz =  1.76011888 (alpha =  2.83729748 rs = 16.12910517)

 technical parameters:
      fixed step: time step =        5.80  ficticious mass =   400000.00
      tolerance =   1.000e-09 (energy)    1.000e+00 (density)    1.000e-04 (ion)
      max iterations =       1000 (   10 inner   100 outer)
      minimizer = Grassmann conjugate gradient



     ============ Grassmann conjugate gradient iteration ============
          >>> iteration started at Mon Feb 20 12:57:21 2023  <<<
     iter.                 Energy          DeltaE        DeltaRho
     ----------------------------------------------------------------
        - 10 steepest descent iterations performed
        10      -1.719854750859e+01   -5.739063e-05    1.086836e-06
        20      -1.719866697103e+01   -1.561352e-06    7.029033e-08
        30      -1.719867013369e+01   -4.633683e-08    1.534761e-10
        40      -1.719867027116e+01   -2.334851e-09    4.231103e-11
        50      -1.719867027638e+01   -8.357333e-10    1.415687e-11
     *** tolerance ok. iteration terminated
          >>> iteration ended at   Mon Feb 20 12:57:59 2023  <<<

     ==============  energy results (Molecule object)  ==============


 number of electrons: spin up=     4.00000  down=     4.00000 (real space)


 APC Potential:
   0.032168321   0.018471985   0.019170642

 APC Point Charges:
  -0.742599484   0.372218634   0.370380850


 total     energy    :   -1.7198670276e+01 (   -5.73289e+00 /ion)
 total orbital energy:   -4.1186005524e+00 (   -1.02965e+00 /electron)
 hartree energy      :    1.8012763373e+01 (    4.50319e+00 /electron)
 exc-corr energy     :   -4.2447731089e+00 (   -1.06119e+00 /electron)
 APC energy          :   -9.9121231919e-03 (   -3.30404e-03 /ion)
 ion-ion energy      :    3.5966383352e+00 (    1.19888e+00 /ion)

 kinetic (planewave) :    1.2411600602e+01 (    3.10290e+00 /electron)
 V_local (planewave) :   -4.5793468975e+01 (   -1.14484e+01 /electron)
 V_nl    (planewave) :   -1.2574819138e+00 (   -3.14370e-01 /electron)
 V_Coul  (planewave) :    3.6025526747e+01 (    9.00638e+00 /electron)
 V_xc    (planewave) :   -5.5047770129e+00 (   -1.37619e+00 /electron)
 K.S. V_APC energy   :   -8.5963533407e-02 (   -2.86545e-02 /ion)
 Viral Coefficient   :   -1.3318347637e+00

 orbital energy:
    -2.7467794e-01 (  -7.474eV)
    -3.4392861e-01 (  -9.359eV)
    -5.0664632e-01 ( -13.787eV)
    -9.3404742e-01 ( -25.417eV)

== Center of Charge ==

spin up    = (    0.3274    -0.1283    -0.0913 )
spin down  = (    0.3274    -0.1283    -0.0913 )
     total = (    0.3274    -0.1283    -0.0913 )
ionic      = (    0.3418    -0.1460    -0.1893 )

== Molecular Dipole wrt Center of Mass ==

mu   = (    0.1153    -0.1410    -0.7838 ) au
|mu| =      0.8046 au (     2.0451 Debye )


 Ion Forces (au):
   1 O	(    0.00014   -0.00159    0.00561 )
   2 H	(   -0.00082   -0.00158   -0.00230 )
   3 H	(    0.00231    0.00170   -0.00152 )



*************************************************************
**                                                         **
**          PSPW Atomic Point Charge (APC) Analysis        **
**                                                         **
**   Point charge analysis based on paper by P.E. Blochl   **
**         (J. Chem. Phys. vol 103, page 7422, 1995)       **
**                                                         **
*************************************************************

 nwpw_APC object
 ---------------
 nga =   3 ngs =     9
 Gc  =   2.50000
 APC gamma: 0 0.60000
 APC gamma: 1 0.90000
 APC gamma: 2 1.35000
 - self-consistent

 APC Potential:
   0.032168321   0.018471985   0.019170642

 APC Point Charges:
  -0.742599484   0.372218634   0.370380850


 charge analysis on each atom
 ----------------------------

      no  atom        Qelc        Qion      Qtotal
   -----  ----     -------     -------     -------
       1    O       -6.743       6.000      -0.743
       2    H       -0.628       1.000       0.372
       3    H       -0.630       1.000       0.370
       Total Q      -8.000       8.000       0.000


 Gaussian coefficients of model density
 --------------------------------------

      no  atom     g=0.000     g=0.600     g=0.900     g=1.350
   -----  ----     -------     -------     -------     -------
       1     O       6.000      -1.097      -2.076      -3.569
       2     H       1.000      -0.718       0.776      -0.685
       3     H       1.000      -0.718       0.778      -0.690


 output psi to filename: ./nwchemex.movecs

 -----------------
 cputime in seconds
 prologue    : 3.135e-01
 main loop   : 3.740e+01
 epilogue    : 9.586e-02
 total       : 3.781e+01
 cputime/step: 2.527e-01 ( 148 evaluations, 44 linesearches)

 Time spent doing      total        step             percent
 total time            6.464663e+01 4.368016e-01     100.00%
 total FFT time        2.516005e+01 1.700003e-01      38.92%
 lagrange multipliers  1.853756e-02 1.252538e-04       0.03%
 local potentials      2.839844e-01 1.918813e-03       0.44%
 non-local potentials  1.327892e+00 8.972243e-03       2.05%
 ffm_dgemm             2.970267e-01 2.006937e-03       0.46%
 fmf_dgemm             6.109663e-01 4.128151e-03       0.95%
 m_diagonalize         1.406131e-03 9.500885e-06       0.00%
 mmm_multiply          1.389650e-04 9.389527e-07       0.00%
 SCVtrans              5.343670e-04 3.610588e-06       0.00%

 >>> job completed at     Mon Feb 20 12:57:59 2023 <<<
          *****************************************************
          *                                                   *
          *               PWDFT PSPW Calculation              *
          *                                                   *
          *  [ (Grassmann/Stiefel manifold implementation) ]  *
          *  [              C++ implementation             ]  *
          *                                                   *
          *              version #7.00   02/27/21             *
          *                                                   *
          *    This code was developed by Eric J. Bylaska,    *
          *    Abhishek Bagusetty, David H. Bross, ...        *
          *                                                   *
          *****************************************************
          >>> job started at       Mon Feb 20 12:57:59 2023 <<<

 psp_library: /home/sjplimp/nwchem/PWDFT/Nwpw/libraryps



 initializing nwpw_APC object
 ----------------------------
 nga =   3 ngs =     9
 Gc  =   2.50000
 APC gamma: 0 0.60000
 APC gamma: 1 0.90000
 APC gamma: 2 1.35000
 APC u:        1         0.03217
 APC u:        2         0.01848
 APC u:        3         0.01917
 - self-consistent

 reading formatted psp filename: ./O.vpp

 reading formatted psp filename: ./H.vpp
 input psi exists, reading from file: ./nwchemex.movecs

          ==============  summary of input  ==================

 input psi filename: ./nwchemex.movecs

 number of processors used: 2
 processor grid           : 2 x1
 parallel mapping         : 2d-hcurve
 parallel mapping         : balanced

 options:
   boundary conditions  = periodic
   electron spin        = restricted
   exchange-correlation = PBE96 (White and Bird) parameterization

 elements involved in the cluster:
      1: O   valence charge =  6.0  lmax =2
             comment = Parameterized (Chem.Phys.Lett., vol 322, page 447) Hamman psp 
             pseudopotential type            =  0
             highest angular component       =  2
             local potential used            =  2
             number of non-local projections =  4
             cutoff =    0.700   0.700   0.700
      2: H   valence charge =  1.0  lmax =1
             comment = Parameterized (Chem.Phys.Lett., vol 322, page 447) Hamman psp 
             pseudopotential type            =  0
             highest angular component       =  1
             local potential used            =  1
             number of non-local projections =  1
             cutoff =    0.800   0.800

 total charge =   0.000

 atom composition:
   O : 1   H : 2

 initial ion positions (au):
   1 O	(    0.30530   -0.09999    0.06269 ) - atomic mass = 15.995
   2 H	(    1.51755    0.69755   -0.96692 ) - atomic mass =  1.008
   3 H	(   -0.61523   -1.26531   -0.92326 ) - atomic mass =  1.008
   G.C.	(    0.40254   -0.22258   -0.60916 )
 C.O.M.	(    0.32163   -0.12057   -0.05011 )

 real space Electric field:
     Electric Field (au) = (   0.00000    0.00000    0.00000 )
             Center (au) = (   0.00000    0.00000    0.00000 )


 number of electrons: spin up =     4 (   4 per task) down =     4 (   4 per task)

 supercell:
      volume =   17575.98
      lattice:    a1 = <   26.000    0.000    0.000 >
                  a2 = <    0.000   26.000    0.000 >
                  a3 = <    0.000    0.000   26.000 >
      reciprocal: b1 = <    0.242    0.000    0.000 >
                  b2 = <    0.000    0.242    0.000 >
                  b3 = <    0.000    0.000    0.242 >
      lattice:    a =      26.000 b =     26.000 c =      26.000
                  alpha =  90.000 beta =  90.000 gamma =  90.000
      density cutoff = 60.000 fft =  96 x   96 x   96  (  195216 waves    97608 per task)
      wavefnc cutoff = 30.000 fft =  96 x   96 x   96  (   69013 waves    34507 per task)

 Ewald parameters:
      energy cutoff =  60.000 fft =  96 x   96 x   96  (  195216 waves    97608 per task)
      Ewald summation: cut radius =   8.276 and   1
                       Mandelung Wigner-Seitz =  1.76011888 (alpha =  2.83729748 rs = 16.12910517)

 technical parameters:
      fixed step: time step =        5.80  ficticious mass =   400000.00
      tolerance =   1.000e-09 (energy)    1.000e+00 (density)    1.000e-04 (ion)
      max iterations =       1000 (   10 inner   100 outer)
      minimizer = Grassmann conjugate gradient



     ============ Grassmann conjugate gradient iteration ============
          >>> iteration started at Mon Feb 20 12:57:59 2023  <<<
     iter.                 Energy          DeltaE        DeltaRho
     ----------------------------------------------------------------
        10      -1.719867286753e+01   -6.807603e-10    2.321482e-11
     *** tolerance ok. iteration terminated
          >>> iteration ended at   Mon Feb 20 12:58:00 2023  <<<

     ==============  energy results (Molecule object)  ==============


 number of electrons: spin up=     4.00000  down=     4.00000 (real space)


 APC Potential:
   0.032174976   0.018475289   0.019174010

 APC Point Charges:
  -0.742603988   0.372221498   0.370382490


 total     energy    :   -1.7198672868e+01 (   -5.73289e+00 /ion)
 total orbital energy:   -4.1185877728e+00 (   -1.02965e+00 /electron)
 hartree energy      :    1.8012764978e+01 (    4.50319e+00 /electron)
 exc-corr energy     :   -4.2447737993e+00 (   -1.06119e+00 /electron)
 APC energy          :   -9.9146481410e-03 (   -3.30488e-03 /ion)
 ion-ion energy      :    3.5966070435e+00 (    1.19887e+00 /ion)

 kinetic (planewave) :    1.2411604235e+01 (    3.10290e+00 /electron)
 V_local (planewave) :   -4.5793466800e+01 (   -1.14484e+01 /electron)
 V_nl    (planewave) :   -1.2574773464e+00 (   -3.14369e-01 /electron)
 V_Coul  (planewave) :    3.6025529957e+01 (    9.00638e+00 /electron)
 V_xc    (planewave) :   -5.5047778183e+00 (   -1.37619e+00 /electron)
 K.S. V_APC energy   :   -8.5983469377e-02 (   -2.86612e-02 /ion)
 Viral Coefficient   :   -1.3318336369e+00

 orbital energy:
    -2.7467727e-01 (  -7.474eV)
    -3.4393166e-01 (  -9.359eV)
    -5.0664047e-01 ( -13.786eV)
    -9.3404449e-01 ( -25.417eV)

== Center of Charge ==

spin up    = (    0.3274    -0.1283    -0.0913 )
spin down  = (    0.3274    -0.1283    -0.0913 )
     total = (    0.3274    -0.1283    -0.0913 )
ionic      = (    0.3418    -0.1460    -0.1893 )

== Molecular Dipole wrt Center of Mass ==

mu   = (    0.1153    -0.1410    -0.7838 ) au
|mu| =      0.8047 au (     2.0451 Debye )


 Ion Forces (au):
   1 O	(    0.00016   -0.00158    0.00552 )
   2 H	(   -0.00083   -0.00158   -0.00229 )
   3 H	(    0.00230    0.00170   -0.00151 )



*************************************************************
**                                                         **
**          PSPW Atomic Point Charge (APC) Analysis        **
**                                                         **
**   Point charge analysis based on paper by P.E. Blochl   **
**         (J. Chem. Phys. vol 103, page 7422, 1995)       **
**                                                         **
*************************************************************

 nwpw_APC object
 ---------------
 nga =   3 ngs =     9
 Gc  =   2.50000
 APC gamma: 0 0.60000
 APC gamma: 1 0.90000
 APC gamma: 2 1.35000
 - self-consistent

 APC Potential:
   0.032174976   0.018475289   0.019174010

 APC Point Charges:
  -0.742603988   0.372221498   0.370382490


 charge analysis on each atom
 ----------------------------

      no  atom        Qelc        Qion      Qtotal
   -----  ----     -------     -------     -------
       1    O       -6.743       6.000      -0.743
       2    H       -0.628       1.000       0.372
       3    H       -0.630       1.000       0.370
       Total Q      -8.000       8.000       0.000


 Gaussian coefficients of model density
 --------------------------------------

      no  atom     g=0.000     g=0.600     g=0.900     g=1.350
   -----  ----     -------     -------     -------     -------
       1     O       6.000      -1.098      -2.076      -3.570
       2     H       1.000      -0.718       0.776      -0.685
       3     H       1.000      -0.718       0.778      -0.689


 output psi to filename: ./nwchemex.movecs

 -----------------
 cputime in seconds
 prologue    : 2.214e-01
 main loop   : 1.030e+00
 epilogue    : 9.611e-02
 total       : 1.348e+00
 cputime/step: 2.576e-01 ( 4 evaluations, 1 linesearches)

 Time spent doing      total        step             percent
 total time            6.604688e+01 1.651172e+01     100.00%
 total FFT time        2.555931e+01 6.389827e+00      38.70%
 lagrange multipliers  1.853756e-02 4.634389e-03       0.03%
 local potentials      2.971789e-01 7.429473e-02       0.45%
 non-local potentials  1.360641e+00 3.401602e-01       2.06%
 ffm_dgemm             3.019507e-01 7.548767e-02       0.46%
 fmf_dgemm             6.190920e-01 1.547730e-01       0.94%
 m_diagonalize         1.429935e-03 3.574837e-04       0.00%
 mmm_multiply          1.401450e-04 3.503625e-05       0.00%
 SCVtrans              5.391370e-04 1.347842e-04       0.00%

 >>> job completed at     Mon Feb 20 12:58:00 2023 <<<
          *****************************************************
          *                                                   *
          *               PWDFT PSPW Calculation              *
          *                                                   *
          *  [ (Grassmann/Stiefel manifold implementation) ]  *
          *  [              C++ implementation             ]  *
          *                                                   *
          *              version #7.00   02/27/21             *
          *                                                   *
          *    This code was developed by Eric J. Bylaska,    *
          *    Abhishek Bagusetty, David H. Bross, ...        *
          *                                                   *
          *****************************************************
          >>> job started at       Mon Feb 20 12:58:00 2023 <<<

 psp_library: /home/sjplimp/nwchem/PWDFT/Nwpw/libraryps



 initializing nwpw_APC object
 ----------------------------
 nga =   3 ngs =     9
 Gc  =   2.50000
 APC gamma: 0 0.60000
 APC gamma: 1 0.90000
 APC gamma: 2 1.35000
 APC u:        1         0.03219
 APC u:        2         0.01849
 APC u:        3         0.01918
 - self-consistent

 reading formatted psp filename: ./O.vpp

 reading formatted psp filename: ./H.vpp
 input psi exists, reading from file: ./nwchemex.movecs

          ==============  summary of input  ==================

 input psi filename: ./nwchemex.movecs

 number of processors used: 2
 processor grid           : 2 x1
 parallel mapping         : 2d-hcurve
 parallel mapping         : balanced

 options:
   boundary conditions  = periodic
   electron spin        = restricted
   exchange-correlation = PBE96 (White and Bird) parameterization

 elements involved in the cluster:
      1: O   valence charge =  6.0  lmax =2
             comment = Parameterized (Chem.Phys.Lett., vol 322, page 447) Hamman psp 
             pseudopotential type            =  0
             highest angular component       =  2
             local potential used            =  2
             number of non-local projections =  4
             cutoff =    0.700   0.700   0.700
      2: H   valence charge =  1.0  lmax =1
             comment = Parameterized (Chem.Phys.Lett., vol 322, page 447) Hamman psp 
             pseudopotential type            =  0
             highest angular component       =  1
             local potential used            =  1
             number of non-local projections =  1
             cutoff =    0.800   0.800

 total charge =   0.000

 atom composition:
   O : 1   H : 2

 initial ion positions (au):
   1 O	(    0.30530   -0.09999    0.06270 ) - atomic mass = 15.995
   2 H	(    1.51756    0.69753   -0.96698 ) - atomic mass =  1.008
   3 H	(   -0.61520   -1.26530   -0.92331 ) - atomic mass =  1.008
   G.C.	(    0.40256   -0.22259   -0.60920 )
 C.O.M.	(    0.32163   -0.12057   -0.05011 )

 real space Electric field:
     Electric Field (au) = (   0.00000    0.00000    0.00000 )
             Center (au) = (   0.00000    0.00000    0.00000 )


 number of electrons: spin up =     4 (   4 per task) down =     4 (   4 per task)

 supercell:
      volume =   17575.98
      lattice:    a1 = <   26.000    0.000    0.000 >
                  a2 = <    0.000   26.000    0.000 >
                  a3 = <    0.000    0.000   26.000 >
      reciprocal: b1 = <    0.242    0.000    0.000 >
                  b2 = <    0.000    0.242    0.000 >
                  b3 = <    0.000    0.000    0.242 >
      lattice:    a =      26.000 b =     26.000 c =      26.000
                  alpha =  90.000 beta =  90.000 gamma =  90.000
      density cutoff = 60.000 fft =  96 x   96 x   96  (  195216 waves    97608 per task)
      wavefnc cutoff = 30.000 fft =  96 x   96 x   96  (   69013 waves    34507 per task)

 Ewald parameters:
      energy cutoff =  60.000 fft =  96 x   96 x   96  (  195216 waves    97608 per task)
      Ewald summation: cut radius =   8.276 and   1
                       Mandelung Wigner-Seitz =  1.76011888 (alpha =  2.83729748 rs = 16.12910517)

 technical parameters:
      fixed step: time step =        5.80  ficticious mass =   400000.00
      tolerance =   1.000e-09 (energy)    1.000e+00 (density)    1.000e-04 (ion)
      max iterations =       1000 (   10 inner   100 outer)
      minimizer = Grassmann conjugate gradient



     ============ Grassmann conjugate gradient iteration ============
          >>> iteration started at Mon Feb 20 12:58:01 2023  <<<
     iter.                 Energy          DeltaE        DeltaRho
     ----------------------------------------------------------------
        10      -1.719868062972e+01   -9.419665e-10    5.922204e-11
     *** tolerance ok. iteration terminated
          >>> iteration ended at   Mon Feb 20 12:58:03 2023  <<<

     ==============  energy results (Molecule object)  ==============


 number of electrons: spin up=     4.00000  down=     4.00000 (real space)


 APC Potential:
   0.032194911   0.018485184   0.019184100

 APC Point Charges:
  -0.742638641   0.372241291   0.370397350


 total     energy    :   -1.7198680630e+01 (   -5.73289e+00 /ion)
 total orbital energy:   -4.1185937828e+00 (   -1.02965e+00 /electron)
 hartree energy      :    1.8012723256e+01 (    4.50318e+00 /electron)
 exc-corr energy     :   -4.2447666970e+00 (   -1.06119e+00 /electron)
 APC energy          :   -9.9224962705e-03 (   -3.30750e-03 /ion)
 ion-ion energy      :    3.5965135890e+00 (    1.19884e+00 /ion)

 kinetic (planewave) :    1.2411587836e+01 (    3.10290e+00 /electron)
 V_local (planewave) :   -4.5793387800e+01 (   -1.14483e+01 /electron)
 V_nl    (planewave) :   -1.2574717978e+00 (   -3.14368e-01 /electron)
 V_Coul  (planewave) :    3.6025446512e+01 (    9.00636e+00 /electron)
 V_xc    (planewave) :   -5.5047685322e+00 (   -1.37619e+00 /electron)
 K.S. V_APC energy   :   -8.6043480840e-02 (   -2.86812e-02 /ion)
 Viral Coefficient   :   -1.3318345595e+00

 orbital energy:
    -2.7468030e-01 (  -7.474eV)
    -3.4394195e-01 (  -9.359eV)
    -5.0663062e-01 ( -13.786eV)
    -9.3404403e-01 ( -25.417eV)

== Center of Charge ==

spin up    = (    0.3274    -0.1283    -0.0913 )
spin down  = (    0.3274    -0.1283    -0.0913 )
     total = (    0.3274    -0.1283    -0.0913 )
ionic      = (    0.3418    -0.1460    -0.1893 )

== Molecular Dipole wrt Center of Mass ==

mu   = (    0.1153    -0.1410    -0.7839 ) au
|mu| =      0.8048 au (     2.0454 Debye )


 Ion Forces (au):
   1 O	(    0.00015   -0.00159    0.00561 )
   2 H	(   -0.00084   -0.00158   -0.00227 )
   3 H	(    0.00230    0.00170   -0.00150 )



*************************************************************
**                                                         **
**          PSPW Atomic Point Charge (APC) Analysis        **
**                                                         **
**   Point charge analysis based on paper by P.E. Blochl   **
**         (J. Chem. Phys. vol 103, page 7422, 1995)       **
**                                                         **
*************************************************************

 nwpw_APC object
 ---------------
 nga =   3 ngs =     9
 Gc  =   2.50000
 APC gamma: 0 0.60000
 APC gamma: 1 0.90000
 APC gamma: 2 1.35000
 - self-consistent

 APC Potential:
   0.032194911   0.018485184   0.019184100

 APC Point Charges:
  -0.742638641   0.372241291   0.370397350


 charge analysis on each atom
 ----------------------------

      no  atom        Qelc        Qion      Qtotal
   -----  ----     -------     -------     -------
       1    O       -6.743       6.000      -0.743
       2    H       -0.628       1.000       0.372
       3    H       -0.630       1.000       0.370
       Total Q      -8.000       8.000       0.000


 Gaussian coefficients of model density
 --------------------------------------

      no  atom     g=0.000     g=0.600     g=0.900     g=1.350
   -----  ----     -------     -------     -------     -------
       1     O       6.000      -1.098      -2.075      -3.570
       2     H       1.000      -0.718       0.776      -0.685
       3     H       1.000      -0.718       0.778      -0.689


 output psi to filename: ./nwchemex.movecs

 -----------------
 cputime in seconds
 prologue    : 2.155e-01
 main loop   : 2.533e+00
 epilogue    : 9.702e-02
 total       : 2.846e+00
 cputime/step: 2.533e-01 ( 10 evaluations, 3 linesearches)

 Time spent doing      total        step             percent
 total time            6.891974e+01 6.891974e+00     100.00%
 total FFT time        2.655430e+01 2.655430e+00      38.53%
 lagrange multipliers  1.853756e-02 1.853756e-03       0.03%
 local potentials      3.212521e-01 3.212521e-02       0.47%
 non-local potentials  1.421658e+00 1.421658e-01       2.06%
 ffm_dgemm             3.142734e-01 3.142734e-02       0.46%
 fmf_dgemm             6.436336e-01 6.436336e-02       0.93%
 m_diagonalize         1.469026e-03 1.469026e-04       0.00%
 mmm_multiply          1.431810e-04 1.431810e-05       0.00%
 SCVtrans              5.508620e-04 5.508620e-05       0.00%

 >>> job completed at     Mon Feb 20 12:58:03 2023 <<<
          *****************************************************
          *                                                   *
          *               PWDFT PSPW Calculation              *
          *                                                   *
          *  [ (Grassmann/Stiefel manifold implementation) ]  *
          *  [              C++ implementation             ]  *
          *                                                   *
          *              version #7.00   02/27/21             *
          *                                                   *
          *    This code was developed by Eric J. Bylaska,    *
          *    Abhishek Bagusetty, David H. Bross, ...        *
          *                                                   *
          *****************************************************
          >>> job started at       Mon Feb 20 12:58:03 2023 <<<

 psp_library: /home/sjplimp/nwchem/PWDFT/Nwpw/libraryps



 initializing nwpw_APC object
 ----------------------------
 nga =   3 ngs =     9
 Gc  =   2.50000
 APC gamma: 0 0.60000
 APC gamma: 1 0.90000
 APC gamma: 2 1.35000
 APC u:        1         0.03223
 APC u:        2         0.01850
 APC u:        3         0.01920
 - self-consistent

 reading formatted psp filename: ./O.vpp

 reading formatted psp filename: ./H.vpp
 input psi exists, reading from file: ./nwchemex.movecs

          ==============  summary of input  ==================

 input psi filename: ./nwchemex.movecs

 number of processors used: 2
 processor grid           : 2 x1
 parallel mapping         : 2d-hcurve
 parallel mapping         : balanced

 options:
   boundary conditions  = periodic
   electron spin        = restricted
   exchange-correlation = PBE96 (White and Bird) parameterization

 elements involved in the cluster:
      1: O   valence charge =  6.0  lmax =2
             comment = Parameterized (Chem.Phys.Lett., vol 322, page 447) Hamman psp 
             pseudopotential type            =  0
             highest angular component       =  2
             local potential used            =  2
             number of non-local projections =  4
             cutoff =    0.700   0.700   0.700
      2: H   valence charge =  1.0  lmax =1
             comment = Parameterized (Chem.Phys.Lett., vol 322, page 447) Hamman psp 
             pseudopotential type            =  0
             highest angular component       =  1
             local potential used            =  1
             number of non-local projections =  1
             cutoff =    0.800   0.800

 total charge =   0.000

 atom composition:
   O : 1   H : 2

 initial ion positions (au):
   1 O	(    0.30530   -0.09999    0.06272 ) - atomic mass = 15.995
   2 H	(    1.51757    0.69750   -0.96708 ) - atomic mass =  1.008
   3 H	(   -0.61515   -1.26529   -0.92340 ) - atomic mass =  1.008
   G.C.	(    0.40258   -0.22259   -0.60925 )
 C.O.M.	(    0.32163   -0.12058   -0.05011 )

 real space Electric field:
     Electric Field (au) = (   0.00000    0.00000    0.00000 )
             Center (au) = (   0.00000    0.00000    0.00000 )


 number of electrons: spin up =     4 (   4 per task) down =     4 (   4 per task)

 supercell:
      volume =   17575.98
      lattice:    a1 = <   26.000    0.000    0.000 >
                  a2 = <    0.000   26.000    0.000 >
                  a3 = <    0.000    0.000   26.000 >
      reciprocal: b1 = <    0.242    0.000    0.000 >
                  b2 = <    0.000    0.242    0.000 >
                  b3 = <    0.000    0.000    0.242 >
      lattice:    a =      26.000 b =     26.000 c =      26.000
                  alpha =  90.000 beta =  90.000 gamma =  90.000
      density cutoff = 60.000 fft =  96 x   96 x   96  (  195216 waves    97608 per task)
      wavefnc cutoff = 30.000 fft =  96 x   96 x   96  (   69013 waves    34507 per task)

 Ewald parameters:
      energy cutoff =  60.000 fft =  96 x   96 x   96  (  195216 waves    97608 per task)
      Ewald summation: cut radius =   8.276 and   1
                       Mandelung Wigner-Seitz =  1.76011888 (alpha =  2.83729748 rs = 16.12910517)

 technical parameters:
      fixed step: time step =        5.80  ficticious mass =   400000.00
      tolerance =   1.000e-09 (energy)    1.000e+00 (density)    1.000e-04 (ion)
      max iterations =       1000 (   10 inner   100 outer)
      minimizer = Grassmann conjugate gradient



     ============ Grassmann conjugate gradient iteration ============
          >>> iteration started at Mon Feb 20 12:58:03 2023  <<<
     iter.                 Energy          DeltaE        DeltaRho
     ----------------------------------------------------------------
        10      -1.719869353513e+01   -6.999983e-10    1.974356e-11
     *** tolerance ok. iteration terminated
          >>> iteration ended at   Mon Feb 20 12:58:08 2023  <<<

     ==============  energy results (Molecule object)  ==============


 number of electrons: spin up=     4.00000  down=     4.00000 (real space)


 APC Potential:
   0.032228045   0.018501626   0.019200864

 APC Point Charges:
  -0.742700321   0.372273084   0.370427237


 total     energy    :   -1.7198693535e+01 (   -5.73290e+00 /ion)
 total orbital energy:   -4.1186507914e+00 (   -1.02966e+00 /electron)
 hartree energy      :    1.8012603696e+01 (    4.50315e+00 /electron)
 exc-corr energy     :   -4.2447443787e+00 (   -1.06119e+00 /electron)
 APC energy          :   -9.9355992614e-03 (   -3.31187e-03 /ion)
 ion-ion energy      :    3.5963580889e+00 (    1.19879e+00 /ion)

 kinetic (planewave) :    1.2411482266e+01 (    3.10287e+00 /electron)
 V_local (planewave) :   -4.5793167644e+01 (   -1.14483e+01 /electron)
 V_nl    (planewave) :   -1.2574332540e+00 (   -3.14358e-01 /electron)
 V_Coul  (planewave) :    3.6025207393e+01 (    9.00630e+00 /electron)
 V_xc    (planewave) :   -5.5047395518e+00 (   -1.37618e+00 /electron)
 K.S. V_APC energy   :   -8.6143289858e-02 (   -2.87144e-02 /ion)
 Viral Coefficient   :   -1.3318419753e+00

 orbital energy:
    -2.7469140e-01 (  -7.475eV)
    -3.4396624e-01 (  -9.360eV)
    -5.0661933e-01 ( -13.786eV)
    -9.3404843e-01 ( -25.417eV)

== Center of Charge ==

spin up    = (    0.3274    -0.1283    -0.0913 )
spin down  = (    0.3274    -0.1283    -0.0913 )
     total = (    0.3274    -0.1283    -0.0913 )
ionic      = (    0.3418    -0.1460    -0.1893 )

== Molecular Dipole wrt Center of Mass ==

mu   = (    0.1153    -0.1410    -0.7840 ) au
|mu| =      0.8049 au (     2.0458 Debye )


 Ion Forces (au):
   1 O	(    0.00017   -0.00159    0.00555 )
   2 H	(   -0.00085   -0.00159   -0.00225 )
   3 H	(    0.00230    0.00170   -0.00150 )



*************************************************************
**                                                         **
**          PSPW Atomic Point Charge (APC) Analysis        **
**                                                         **
**   Point charge analysis based on paper by P.E. Blochl   **
**         (J. Chem. Phys. vol 103, page 7422, 1995)       **
**                                                         **
*************************************************************

 nwpw_APC object
 ---------------
 nga =   3 ngs =     9
 Gc  =   2.50000
 APC gamma: 0 0.60000
 APC gamma: 1 0.90000
 APC gamma: 2 1.35000
 - self-consistent

 APC Potential:
   0.032228045   0.018501626   0.019200864

 APC Point Charges:
  -0.742700321   0.372273084   0.370427237


 charge analysis on each atom
 ----------------------------

      no  atom        Qelc        Qion      Qtotal
   -----  ----     -------     -------     -------
       1    O       -6.743       6.000      -0.743
       2    H       -0.628       1.000       0.372
       3    H       -0.630       1.000       0.370
       Total Q      -8.000       8.000      -0.000


 Gaussian coefficients of model density
 --------------------------------------

      no  atom     g=0.000     g=0.600     g=0.900     g=1.350
   -----  ----     -------     -------     -------     -------
       1     O       6.000      -1.098      -2.075      -3.570
       2     H       1.000      -0.718       0.776      -0.685
       3     H       1.000      -0.718       0.778      -0.689


 output psi to filename: ./nwchemex.movecs

 -----------------
 cputime in seconds
 prologue    : 2.168e-01
 main loop   : 4.041e+00
 epilogue    : 9.647e-02
 total       : 4.355e+00
 cputime/step: 2.526e-01 ( 16 evaluations, 5 linesearches)

 Time spent doing      total        step             percent
 total time            7.330040e+01 4.581275e+00     100.00%
 total FFT time        2.814649e+01 1.759155e+00      38.40%
 lagrange multipliers  1.853756e-02 1.158597e-03       0.03%
 local potentials      3.566399e-01 2.228999e-02       0.49%
 non-local potentials  1.510575e+00 9.441093e-02       2.06%
 ffm_dgemm             3.342546e-01 2.089091e-02       0.46%
 fmf_dgemm             6.844001e-01 4.277501e-02       0.93%
 m_diagonalize         1.524933e-03 9.530831e-05       0.00%
 mmm_multiply          1.479840e-04 9.249000e-06       0.00%
 SCVtrans              5.729420e-04 3.580887e-05       0.00%

 >>> job completed at     Mon Feb 20 12:58:08 2023 <<<
          *****************************************************
          *                                                   *
          *               PWDFT PSPW Calculation              *
          *                                                   *
          *  [ (Grassmann/Stiefel manifold implementation) ]  *
          *  [              C++ implementation             ]  *
          *                                                   *
          *              version #7.00   02/27/21             *
          *                                                   *
          *    This code was developed by Eric J. Bylaska,    *
          *    Abhishek Bagusetty, David H. Bross, ...        *
          *                                                   *
          *****************************************************
          >>> job started at       Mon Feb 20 12:58:08 2023 <<<

 psp_library: /home/sjplimp/nwchem/PWDFT/Nwpw/libraryps



 initializing nwpw_APC object
 ----------------------------
 nga =   3 ngs =     9
 Gc  =   2.50000
 APC gamma: 0 0.60000
 APC gamma: 1 0.90000
 APC gamma: 2 1.35000
 APC u:        1         0.03227
 APC u:        2         0.01852
 APC u:        3         0.01922
 - self-consistent

 reading formatted psp filename: ./O.vpp

 reading formatted psp filename: ./H.vpp
 input psi exists, reading from file: ./nwchemex.movecs

          ==============  summary of input  ==================

 input psi filename: ./nwchemex.movecs

 number of processors used: 2
 processor grid           : 2 x1
 parallel mapping         : 2d-hcurve
 parallel mapping         : balanced

 options:
   boundary conditions  = periodic
   electron spin        = restricted
   exchange-correlation = PBE96 (White and Bird) parameterization

 elements involved in the cluster:
      1: O   valence charge =  6.0  lmax =2
             comment = Parameterized (Chem.Phys.Lett., vol 322, page 447) Hamman psp 
             pseudopotential type            =  0
             highest angular component       =  2
             local potential used            =  2
             number of non-local projections =  4
             cutoff =    0.700   0.700   0.700
      2: H   valence charge =  1.0  lmax =1
             comment = Parameterized (Chem.Phys.Lett., vol 322, page 447) Hamman psp 
             pseudopotential type            =  0
             highest angular component       =  1
             local potential used            =  1
             number of non-local projections =  1
             cutoff =    0.800   0.800

 total charge =   0.000

 atom composition:
   O : 1   H : 2

 initial ion positions (au):
   1 O	(    0.30530   -0.09999    0.06274 ) - atomic mass = 15.995
   2 H	(    1.51759    0.69745   -0.96723 ) - atomic mass =  1.008
   3 H	(   -0.61508   -1.26528   -0.92351 ) - atomic mass =  1.008
   G.C.	(    0.40260   -0.22261   -0.60934 )
 C.O.M.	(    0.32164   -0.12058   -0.05010 )

 real space Electric field:
     Electric Field (au) = (   0.00000    0.00000    0.00000 )
             Center (au) = (   0.00000    0.00000    0.00000 )


 number of electrons: spin up =     4 (   4 per task) down =     4 (   4 per task)

 supercell:
      volume =   17575.98
      lattice:    a1 = <   26.000    0.000    0.000 >
                  a2 = <    0.000   26.000    0.000 >
                  a3 = <    0.000    0.000   26.000 >
      reciprocal: b1 = <    0.242    0.000    0.000 >
                  b2 = <    0.000    0.242    0.000 >
                  b3 = <    0.000    0.000    0.242 >
      lattice:    a =      26.000 b =     26.000 c =      26.000
                  alpha =  90.000 beta =  90.000 gamma =  90.000
      density cutoff = 60.000 fft =  96 x   96 x   96  (  195216 waves    97608 per task)
      wavefnc cutoff = 30.000 fft =  96 x   96 x   96  (   69013 waves    34507 per task)

 Ewald parameters:
      energy cutoff =  60.000 fft =  96 x   96 x   96  (  195216 waves    97608 per task)
      Ewald summation: cut radius =   8.276 and   1
                       Mandelung Wigner-Seitz =  1.76011888 (alpha =  2.83729748 rs = 16.12910517)

 technical parameters:
      fixed step: time step =        5.80  ficticious mass =   400000.00
      tolerance =   1.000e-09 (energy)    1.000e+00 (density)    1.000e-04 (ion)
      max iterations =       1000 (   10 inner   100 outer)
      minimizer = Grassmann conjugate gradient



     ============ Grassmann conjugate gradient iteration ============
          >>> iteration started at Mon Feb 20 12:58:08 2023  <<<
     iter.                 Energy          DeltaE        DeltaRho
     ----------------------------------------------------------------
        10      -1.719871153462e+01   -6.391829e-10    1.247001e-11
     *** tolerance ok. iteration terminated
          >>> iteration ended at   Mon Feb 20 12:58:13 2023  <<<

     ==============  energy results (Molecule object)  ==============


 number of electrons: spin up=     4.00000  down=     4.00000 (real space)


 APC Potential:
   0.032274243   0.018524540   0.019224223

 APC Point Charges:
  -0.742788734   0.372316065   0.370472669


 total     energy    :   -1.7198711535e+01 (   -5.73290e+00 /ion)
 total orbital energy:   -4.1187171989e+00 (   -1.02968e+00 /electron)
 hartree energy      :    1.8012450652e+01 (    4.50311e+00 /electron)
 exc-corr energy     :   -4.2447163138e+00 (   -1.06118e+00 /electron)
 APC energy          :   -9.9539109772e-03 (   -3.31797e-03 /ion)
 ion-ion energy      :    3.5961410380e+00 (    1.19871e+00 /ion)

 kinetic (planewave) :    1.2411346474e+01 (    3.10284e+00 /electron)
 V_local (planewave) :   -4.5792882262e+01 (   -1.14482e+01 /electron)
 V_nl    (planewave) :   -1.2573797074e+00 (   -3.14345e-01 /electron)
 V_Coul  (planewave) :    3.6024901303e+01 (    9.00623e+00 /electron)
 V_xc    (planewave) :   -5.5047030067e+00 (   -1.37618e+00 /electron)
 K.S. V_APC energy   :   -8.6282496144e-02 (   -2.87608e-02 /ion)
 Viral Coefficient   :   -1.3318509565e+00

 orbital energy:
    -2.7470534e-01 (  -7.475eV)
    -3.4399929e-01 (  -9.361eV)
    -5.0660135e-01 ( -13.785eV)
    -9.3405261e-01 ( -25.417eV)

== Center of Charge ==

spin up    = (    0.3274    -0.1283    -0.0913 )
spin down  = (    0.3274    -0.1283    -0.0913 )
     total = (    0.3274    -0.1283    -0.0913 )
ionic      = (    0.3418    -0.1460    -0.1893 )

== Molecular Dipole wrt Center of Mass ==

mu   = (    0.1154    -0.1410    -0.7843 ) au
|mu| =      0.8052 au (     2.0464 Debye )


 Ion Forces (au):
   1 O	(    0.00019   -0.00159    0.00550 )
   2 H	(   -0.00088   -0.00160   -0.00222 )
   3 H	(    0.00230    0.00170   -0.00148 )



*************************************************************
**                                                         **
**          PSPW Atomic Point Charge (APC) Analysis        **
**                                                         **
**   Point charge analysis based on paper by P.E. Blochl   **
**         (J. Chem. Phys. vol 103, page 7422, 1995)       **
**                                                         **
*************************************************************

 nwpw_APC object
 ---------------
 nga =   3 ngs =     9
 Gc  =   2.50000
 APC gamma: 0 0.60000
 APC gamma: 1 0.90000
 APC gamma: 2 1.35000
 - self-consistent

 APC Potential:
   0.032274243   0.018524540   0.019224223

 APC Point Charges:
  -0.742788734   0.372316065   0.370472669


 charge analysis on each atom
 ----------------------------

      no  atom        Qelc        Qion      Qtotal
   -----  ----     -------     -------     -------
       1    O       -6.743       6.000      -0.743
       2    H       -0.628       1.000       0.372
       3    H       -0.630       1.000       0.370
       Total Q      -8.000       8.000      -0.000


 Gaussian coefficients of model density
 --------------------------------------

      no  atom     g=0.000     g=0.600     g=0.900     g=1.350
   -----  ----     -------     -------     -------     -------
       1     O       6.000      -1.098      -2.074      -3.571
       2     H       1.000      -0.718       0.775      -0.685
       3     H       1.000      -0.718       0.778      -0.689


 output psi to filename: ./nwchemex.movecs

 -----------------
 cputime in seconds
 prologue    : 2.186e-01
 main loop   : 5.048e+00
 epilogue    : 9.642e-02
 total       : 5.363e+00
 cputime/step: 2.524e-01 ( 20 evaluations, 6 linesearches)

 Time spent doing      total        step             percent
 total time            7.869780e+01 3.934890e+00     100.00%
 total FFT time        3.014250e+01 1.507125e+00      38.30%
 lagrange multipliers  1.853756e-02 9.268778e-04       0.02%
 local potentials      3.996467e-01 1.998233e-02       0.51%
 non-local potentials  1.617431e+00 8.087154e-02       2.06%
 ffm_dgemm             3.582917e-01 1.791458e-02       0.46%
 fmf_dgemm             7.342104e-01 3.671052e-02       0.93%
 m_diagonalize         1.589426e-03 7.947130e-05       0.00%
 mmm_multiply          1.561670e-04 7.808350e-06       0.00%
 SCVtrans              5.951140e-04 2.975570e-05       0.00%

 >>> job completed at     Mon Feb 20 12:58:13 2023 <<<
          *****************************************************
          *                                                   *
          *               PWDFT PSPW Calculation              *
          *                                                   *
          *  [ (Grassmann/Stiefel manifold implementation) ]  *
          *  [              C++ implementation             ]  *
          *                                                   *
          *              version #7.00   02/27/21             *
          *                                                   *
          *    This code was developed by Eric J. Bylaska,    *
          *    Abhishek Bagusetty, David H. Bross, ...        *
          *                                                   *
          *****************************************************
          >>> job started at       Mon Feb 20 12:58:13 2023 <<<

 psp_library: /home/sjplimp/nwchem/PWDFT/Nwpw/libraryps



 initializing nwpw_APC object
 ----------------------------
 nga =   3 ngs =     9
 Gc  =   2.50000
 APC gamma: 0 0.60000
 APC gamma: 1 0.90000
 APC gamma: 2 1.35000
 APC u:        1         0.03233
 APC u:        2         0.01855
 APC u:        3         0.01925
 - self-consistent

 reading formatted psp filename: ./O.vpp

 reading formatted psp filename: ./H.vpp
 input psi exists, reading from file: ./nwchemex.movecs

          ==============  summary of input  ==================

 input psi filename: ./nwchemex.movecs

 number of processors used: 2
 processor grid           : 2 x1
 parallel mapping         : 2d-hcurve
 parallel mapping         : balanced

 options:
   boundary conditions  = periodic
   electron spin        = restricted
   exchange-correlation = PBE96 (White and Bird) parameterization

 elements involved in the cluster:
      1: O   valence charge =  6.0  lmax =2
             comment = Parameterized (Chem.Phys.Lett., vol 322, page 447) Hamman psp 
             pseudopotential type            =  0
             highest angular component       =  2
             local potential used            =  2
             number of non-local projections =  4
             cutoff =    0.700   0.700   0.700
      2: H   valence charge =  1.0  lmax =1
             comment = Parameterized (Chem.Phys.Lett., vol 322, page 447) Hamman psp 
             pseudopotential type            =  0
             highest angular component       =  1
             local potential used            =  1
             number of non-local projections =  1
             cutoff =    0.800   0.800

 total charge =   0.000

 atom composition:
   O : 1   H : 2

 initial ion positions (au):
   1 O	(    0.30530   -0.09999    0.06277 ) - atomic mass = 15.995
   2 H	(    1.51761    0.69739   -0.96741 ) - atomic mass =  1.008
   3 H	(   -0.61499   -1.26526   -0.92367 ) - atomic mass =  1.008
   G.C.	(    0.40264   -0.22262   -0.60944 )
 C.O.M.	(    0.32164   -0.12058   -0.05010 )

 real space Electric field:
     Electric Field (au) = (   0.00000    0.00000    0.00000 )
             Center (au) = (   0.00000    0.00000    0.00000 )


 number of electrons: spin up =     4 (   4 per task) down =     4 (   4 per task)

 supercell:
      volume =   17575.98
      lattice:    a1 = <   26.000    0.000    0.000 >
                  a2 = <    0.000   26.000    0.000 >
                  a3 = <    0.000    0.000   26.000 >
      reciprocal: b1 = <    0.242    0.000    0.000 >
                  b2 = <    0.000    0.242    0.000 >
                  b3 = <    0.000    0.000    0.242 >
      lattice:    a =      26.000 b =     26.000 c =      26.000
                  alpha =  90.000 beta =  90.000 gamma =  90.000
      density cutoff = 60.000 fft =  96 x   96 x   96  (  195216 waves    97608 per task)
      wavefnc cutoff = 30.000 fft =  96 x   96 x   96  (   69013 waves    34507 per task)

 Ewald parameters:
      energy cutoff =  60.000 fft =  96 x   96 x   96  (  195216 waves    97608 per task)
      Ewald summation: cut radius =   8.276 and   1
                       Mandelung Wigner-Seitz =  1.76011888 (alpha =  2.83729748 rs = 16.12910517)

 technical parameters:
      fixed step: time step =        5.80  ficticious mass =   400000.00
      tolerance =   1.000e-09 (energy)    1.000e+00 (density)    1.000e-04 (ion)
      max iterations =       1000 (   10 inner   100 outer)
      minimizer = Grassmann conjugate gradient



     ============ Grassmann conjugate gradient iteration ============
          >>> iteration started at Mon Feb 20 12:58:13 2023  <<<
     iter.                 Energy          DeltaE        DeltaRho
     ----------------------------------------------------------------
        10      -1.719873455954e+01   -9.004282e-10    1.658504e-11
     *** tolerance ok. iteration terminated
          >>> iteration ended at   Mon Feb 20 12:58:18 2023  <<<

     ==============  energy results (Molecule object)  ==============


 number of electrons: spin up=     4.00000  down=     4.00000 (real space)


 APC Potential:
   0.032333312   0.018553820   0.019254068

 APC Point Charges:
  -0.742896601   0.372369359   0.370527242


 total     energy    :   -1.7198734560e+01 (   -5.73291e+00 /ion)
 total orbital energy:   -4.1187908301e+00 (   -1.02970e+00 /electron)
 hartree energy      :    1.8012266800e+01 (    4.50307e+00 /electron)
 exc-corr energy     :   -4.2446829147e+00 (   -1.06117e+00 /electron)
 APC energy          :   -9.9772770331e-03 (   -3.32576e-03 /ion)
 ion-ion energy      :    3.5958632818e+00 (    1.19862e+00 /ion)

 kinetic (planewave) :    1.2411184797e+01 (    3.10280e+00 /electron)
 V_local (planewave) :   -4.5792535047e+01 (   -1.14481e+01 /electron)
 V_nl    (planewave) :   -1.2573146519e+00 (   -3.14329e-01 /electron)
 V_Coul  (planewave) :    3.6024533601e+01 (    9.00613e+00 /electron)
 V_xc    (planewave) :   -5.5046595290e+00 (   -1.37616e+00 /electron)
 K.S. V_APC energy   :   -8.6460451912e-02 (   -2.88202e-02 /ion)
 Viral Coefficient   :   -1.3318612121e+00

 orbital energy:
    -2.7472181e-01 (  -7.476eV)
    -3.4404030e-01 (  -9.362eV)
    -5.0657671e-01 ( -13.785eV)
    -9.3405659e-01 ( -25.417eV)

== Center of Charge ==

spin up    = (    0.3274    -0.1283    -0.0912 )
spin down  = (    0.3274    -0.1283    -0.0912 )
     total = (    0.3274    -0.1283    -0.0912 )
ionic      = (    0.3418    -0.1460    -0.1893 )

== Molecular Dipole wrt Center of Mass ==

mu   = (    0.1155    -0.1411    -0.7846 ) au
|mu| =      0.8055 au (     2.0472 Debye )


 Ion Forces (au):
   1 O	(    0.00022   -0.00158    0.00544 )
   2 H	(   -0.00091   -0.00162   -0.00217 )
   3 H	(    0.00230    0.00171   -0.00146 )



*************************************************************
**                                                         **
**          PSPW Atomic Point Charge (APC) Analysis        **
**                                                         **
**   Point charge analysis based on paper by P.E. Blochl   **
**         (J. Chem. Phys. vol 103, page 7422, 1995)       **
**                                                         **
*************************************************************

 nwpw_APC object
 ---------------
 nga =   3 ngs =     9
 Gc  =   2.50000
 APC gamma: 0 0.60000
 APC gamma: 1 0.90000
 APC gamma: 2 1.35000
 - self-consistent

 APC Potential:
   0.032333312   0.018553820   0.019254068

 APC Point Charges:
  -0.742896601   0.372369359   0.370527242


 charge analysis on each atom
 ----------------------------

      no  atom        Qelc        Qion      Qtotal
   -----  ----     -------     -------     -------
       1    O       -6.743       6.000      -0.743
       2    H       -0.628       1.000       0.372
       3    H       -0.629       1.000       0.371
       Total Q      -8.000       8.000      -0.000


 Gaussian coefficients of model density
 --------------------------------------

      no  atom     g=0.000     g=0.600     g=0.900     g=1.350
   -----  ----     -------     -------     -------     -------
       1     O       6.000      -1.099      -2.073      -3.571
       2     H       1.000      -0.718       0.775      -0.685
       3     H       1.000      -0.718       0.778      -0.689


 output psi to filename: ./nwchemex.movecs

 -----------------
 cputime in seconds
 prologue    : 2.190e-01
 main loop   : 5.030e+00
 epilogue    : 9.607e-02
 total       : 5.345e+00
 cputime/step: 2.515e-01 ( 20 evaluations, 6 linesearches)

 Time spent doing      total        step             percent
 total time            8.407153e+01 4.203577e+00     100.00%
 total FFT time        3.212332e+01 1.606166e+00      38.21%
 lagrange multipliers  1.853756e-02 9.268778e-04       0.02%
 local potentials      4.424081e-01 2.212040e-02       0.53%
 non-local potentials  1.722736e+00 8.613678e-02       2.05%
 ffm_dgemm             3.823353e-01 1.911676e-02       0.45%
 fmf_dgemm             7.841598e-01 3.920799e-02       0.93%
 m_diagonalize         1.651995e-03 8.259975e-05       0.00%
 mmm_multiply          1.620050e-04 8.100250e-06       0.00%
 SCVtrans              6.166230e-04 3.083115e-05       0.00%

 >>> job completed at     Mon Feb 20 12:58:18 2023 <<<
          *****************************************************
          *                                                   *
          *               PWDFT PSPW Calculation              *
          *                                                   *
          *  [ (Grassmann/Stiefel manifold implementation) ]  *
          *  [              C++ implementation             ]  *
          *                                                   *
          *              version #7.00   02/27/21             *
          *                                                   *
          *    This code was developed by Eric J. Bylaska,    *
          *    Abhishek Bagusetty, David H. Bross, ...        *
          *                                                   *
          *****************************************************
          >>> job started at       Mon Feb 20 12:58:18 2023 <<<

 psp_library: /home/sjplimp/nwchem/PWDFT/Nwpw/libraryps



 initializing nwpw_APC object
 ----------------------------
 nga =   3 ngs =     9
 Gc  =   2.50000
 APC gamma: 0 0.60000
 APC gamma: 1 0.90000
 APC gamma: 2 1.35000
 APC u:        1         0.03241
 APC u:        2         0.01859
 APC u:        3         0.01929
 - self-consistent

 reading formatted psp filename: ./O.vpp

 reading formatted psp filename: ./H.vpp
 input psi exists, reading from file: ./nwchemex.movecs

          ==============  summary of input  ==================

 input psi filename: ./nwchemex.movecs

 number of processors used: 2
 processor grid           : 2 x1
 parallel mapping         : 2d-hcurve
 parallel mapping         : balanced

 options:
   boundary conditions  = periodic
   electron spin        = restricted
   exchange-correlation = PBE96 (White and Bird) parameterization

 elements involved in the cluster:
      1: O   valence charge =  6.0  lmax =2
             comment = Parameterized (Chem.Phys.Lett., vol 322, page 447) Hamman psp 
             pseudopotential type            =  0
             highest angular component       =  2
             local potential used            =  2
             number of non-local projections =  4
             cutoff =    0.700   0.700   0.700
      2: H   valence charge =  1.0  lmax =1
             comment = Parameterized (Chem.Phys.Lett., vol 322, page 447) Hamman psp 
             pseudopotential type            =  0
             highest angular component       =  1
             local potential used            =  1
             number of non-local projections =  1
             cutoff =    0.800   0.800

 total charge =   0.000

 atom composition:
   O : 1   H : 2

 initial ion positions (au):
   1 O	(    0.30529   -0.10000    0.06280 ) - atomic mass = 15.995
   2 H	(    1.51764    0.69732   -0.96764 ) - atomic mass =  1.008
   3 H	(   -0.61488   -1.26524   -0.92385 ) - atomic mass =  1.008
   G.C.	(    0.40268   -0.22264   -0.60956 )
 C.O.M.	(    0.32164   -0.12059   -0.05009 )

 real space Electric field:
     Electric Field (au) = (   0.00000    0.00000    0.00000 )
             Center (au) = (   0.00000    0.00000    0.00000 )


 number of electrons: spin up =     4 (   4 per task) down =     4 (   4 per task)

 supercell:
      volume =   17575.98
      lattice:    a1 = <   26.000    0.000    0.000 >
                  a2 = <    0.000   26.000    0.000 >
                  a3 = <    0.000    0.000   26.000 >
      reciprocal: b1 = <    0.242    0.000    0.000 >
                  b2 = <    0.000    0.242    0.000 >
                  b3 = <    0.000    0.000    0.242 >
      lattice:    a =      26.000 b =     26.000 c =      26.000
                  alpha =  90.000 beta =  90.000 gamma =  90.000
      density cutoff = 60.000 fft =  96 x   96 x   96  (  195216 waves    97608 per task)
      wavefnc cutoff = 30.000 fft =  96 x   96 x   96  (   69013 waves    34507 per task)

 Ewald parameters:
      energy cutoff =  60.000 fft =  96 x   96 x   96  (  195216 waves    97608 per task)
      Ewald summation: cut radius =   8.276 and   1
                       Mandelung Wigner-Seitz =  1.76011888 (alpha =  2.83729748 rs = 16.12910517)

 technical parameters:
      fixed step: time step =        5.80  ficticious mass =   400000.00
      tolerance =   1.000e-09 (energy)    1.000e+00 (density)    1.000e-04 (ion)
      max iterations =       1000 (   10 inner   100 outer)
      minimizer = Grassmann conjugate gradient



     ============ Grassmann conjugate gradient iteration ============
          >>> iteration started at Mon Feb 20 12:58:19 2023  <<<
     iter.                 Energy          DeltaE        DeltaRho
     ----------------------------------------------------------------
        10      -1.719876252297e+01   -8.458514e-10    1.397970e-11
     *** tolerance ok. iteration terminated
          >>> iteration ended at   Mon Feb 20 12:58:24 2023  <<<

     ==============  energy results (Molecule object)  ==============


 number of electrons: spin up=     4.00000  down=     4.00000 (real space)


 APC Potential:
   0.032405008   0.018589332   0.019290258

 APC Point Charges:
  -0.743037479   0.372435994   0.370601485


 total     energy    :   -1.7198762523e+01 (   -5.73292e+00 /ion)
 total orbital energy:   -4.1188886861e+00 (   -1.02972e+00 /electron)
 hartree energy      :    1.8012034347e+01 (    4.50301e+00 /electron)
 exc-corr energy     :   -4.2446405568e+00 (   -1.06116e+00 /electron)
 APC energy          :   -1.0005801103e-02 (   -3.33527e-03 /ion)
 ion-ion energy      :    3.5955259013e+00 (    1.19851e+00 /ion)

 kinetic (planewave) :    1.2410979445e+01 (    3.10274e+00 /electron)
 V_local (planewave) :   -4.5792100268e+01 (   -1.14480e+01 /electron)
 V_nl    (planewave) :   -1.2572322176e+00 (   -3.14308e-01 /electron)
 V_Coul  (planewave) :    3.6024068694e+01 (    9.00602e+00 /electron)
 V_xc    (planewave) :   -5.5046043391e+00 (   -1.37615e+00 /electron)
 K.S. V_APC energy   :   -8.6676627471e-02 (   -2.88922e-02 /ion)
 Viral Coefficient   :   -1.3318745877e+00

 orbital energy:
    -2.7474275e-01 (  -7.476eV)
    -3.4409137e-01 (  -9.363eV)
    -5.0654777e-01 ( -13.784eV)
[...]
   -----  ----     -------     -------     -------
       1    O       -6.743       6.000      -0.743
       2    H       -0.627       1.000       0.373
       3    H       -0.629       1.000       0.371
       Total Q      -8.000       8.000      -0.000


 Gaussian coefficients of model density
 --------------------------------------

      no  atom     g=0.000     g=0.600     g=0.900     g=1.350
   -----  ----     -------     -------     -------     -------
       1     O       6.000      -1.101      -2.067      -3.575
       2     H       1.000      -0.717       0.774      -0.684
       3     H       1.000      -0.718       0.776      -0.688


 output psi to filename: ./nwchemex.movecs

 -----------------
 cputime in seconds
 prologue    : 2.190e-01
 main loop   : 6.554e+00
 epilogue    : 9.646e-02
 total       : 6.870e+00
 cputime/step: 2.521e-01 ( 26 evaluations, 8 linesearches)

 Time spent doing      total        step             percent
 total time            1.034903e+02 3.980396e+00     100.00%
 total FFT time        3.938571e+01 1.514835e+00      38.06%
 lagrange multipliers  1.853756e-02 7.129829e-04       0.02%
 local potentials      5.946069e-01 2.286950e-02       0.57%
 non-local potentials  2.104186e+00 8.093024e-02       2.03%
 ffm_dgemm             4.724177e-01 1.816991e-02       0.46%
 fmf_dgemm             9.726952e-01 3.741135e-02       0.94%
 m_diagonalize         1.867953e-03 7.184435e-05       0.00%
 mmm_multiply          1.835330e-04 7.058962e-06       0.00%
 SCVtrans              6.999500e-04 2.692115e-05       0.00%

 >>> job completed at     Mon Feb 20 12:58:38 2023 <<<
          *****************************************************
          *                                                   *
          *               PWDFT PSPW Calculation              *
          *                                                   *
          *  [ (Grassmann/Stiefel manifold implementation) ]  *
          *  [              C++ implementation             ]  *
          *                                                   *
          *              version #7.00   02/27/21             *
          *                                                   *
          *    This code was developed by Eric J. Bylaska,    *
          *    Abhishek Bagusetty, David H. Bross, ...        *
          *                                                   *
          *****************************************************
          >>> job started at       Mon Feb 20 12:58:38 2023 <<<

 psp_library: /home/sjplimp/nwchem/PWDFT/Nwpw/libraryps



 initializing nwpw_APC object
 ----------------------------
 nga =   3 ngs =     9
 Gc  =   2.50000
 APC gamma: 0 0.60000
 APC gamma: 1 0.90000
 APC gamma: 2 1.35000
 APC u:        1         0.03269
 APC u:        2         0.01873
 APC u:        3         0.01944
 - self-consistent

 reading formatted psp filename: ./O.vpp

 reading formatted psp filename: ./H.vpp
 input psi exists, reading from file: ./nwchemex.movecs

          ==============  summary of input  ==================

 input psi filename: ./nwchemex.movecs

 number of processors used: 2
 processor grid           : 2 x1
 parallel mapping         : 2d-hcurve
 parallel mapping         : balanced

 options:
   boundary conditions  = periodic
   electron spin        = restricted
   exchange-correlation = PBE96 (White and Bird) parameterization

 elements involved in the cluster:
      1: O   valence charge =  6.0  lmax =2
             comment = Parameterized (Chem.Phys.Lett., vol 322, page 447) Hamman psp 
             pseudopotential type            =  0
             highest angular component       =  2
             local potential used            =  2
             number of non-local projections =  4
             cutoff =    0.700   0.700   0.700
      2: H   valence charge =  1.0  lmax =1
             comment = Parameterized (Chem.Phys.Lett., vol 322, page 447) Hamman psp 
             pseudopotential type            =  0
             highest angular component       =  1
             local potential used            =  1
             number of non-local projections =  1
             cutoff =    0.800   0.800

 total charge =   0.000

 atom composition:
   O : 1   H : 2

 initial ion positions (au):
   1 O	(    0.30528   -0.10000    0.06294 ) - atomic mass = 15.995
   2 H	(    1.51774    0.69702   -0.96856 ) - atomic mass =  1.008
   3 H	(   -0.61443   -1.26514   -0.92461 ) - atomic mass =  1.008
   G.C.	(    0.40286   -0.22271   -0.61007 )
 C.O.M.	(    0.32166   -0.12060   -0.05005 )

 real space Electric field:
     Electric Field (au) = (   0.00000    0.00000    0.00000 )
             Center (au) = (   0.00000    0.00000    0.00000 )


 number of electrons: spin up =     4 (   4 per task) down =     4 (   4 per task)

 supercell:
      volume =   17575.98
      lattice:    a1 = <   26.000    0.000    0.000 >
                  a2 = <    0.000   26.000    0.000 >
                  a3 = <    0.000    0.000   26.000 >
      reciprocal: b1 = <    0.242    0.000    0.000 >
                  b2 = <    0.000    0.242    0.000 >
                  b3 = <    0.000    0.000    0.242 >
      lattice:    a =      26.000 b =     26.000 c =      26.000
                  alpha =  90.000 beta =  90.000 gamma =  90.000
      density cutoff = 60.000 fft =  96 x   96 x   96  (  195216 waves    97608 per task)
      wavefnc cutoff = 30.000 fft =  96 x   96 x   96  (   69013 waves    34507 per task)

 Ewald parameters:
      energy cutoff =  60.000 fft =  96 x   96 x   96  (  195216 waves    97608 per task)
      Ewald summation: cut radius =   8.276 and   1
                       Mandelung Wigner-Seitz =  1.76011888 (alpha =  2.83729748 rs = 16.12910517)

 technical parameters:
      fixed step: time step =        5.80  ficticious mass =   400000.00
      tolerance =   1.000e-09 (energy)    1.000e+00 (density)    1.000e-04 (ion)
      max iterations =       1000 (   10 inner   100 outer)
      minimizer = Grassmann conjugate gradient



     ============ Grassmann conjugate gradient iteration ============
          >>> iteration started at Mon Feb 20 12:58:38 2023  <<<
     iter.                 Energy          DeltaE        DeltaRho
     ----------------------------------------------------------------
        10      -1.719887486949e+01   -7.199468e-10    8.526684e-12
     *** tolerance ok. iteration terminated
          >>> iteration ended at   Mon Feb 20 12:58:46 2023  <<<

     ==============  energy results (Molecule object)  ==============


 number of electrons: spin up=     4.00000  down=     4.00000 (real space)


 APC Potential:
   0.032692607   0.018731490   0.019435046

 APC Point Charges:
  -0.743603553   0.372702565   0.370900988


 total     energy    :   -1.7198874869e+01 (   -5.73296e+00 /ion)
 total orbital energy:   -4.1192575358e+00 (   -1.02981e+00 /electron)
 hartree energy      :    1.8011125755e+01 (    4.50278e+00 /electron)
 exc-corr energy     :   -4.2444760444e+00 (   -1.06112e+00 /electron)
 APC energy          :   -1.0120586085e-02 (   -3.37353e-03 /ion)
 ion-ion energy      :    3.5941707536e+00 (    1.19806e+00 /ion)

 kinetic (planewave) :    1.2410180125e+01 (    3.10255e+00 /electron)
 V_local (planewave) :   -4.5790391786e+01 (   -1.14476e+01 /electron)
 V_nl    (planewave) :   -1.2569073825e+00 (   -3.14227e-01 /electron)
 V_Coul  (planewave) :    3.6022251510e+01 (    9.00556e+00 /electron)
 V_xc    (planewave) :   -5.5043900019e+00 (   -1.37610e+00 /electron)
 K.S. V_APC energy   :   -8.7544296454e-02 (   -2.91814e-02 /ion)
 Viral Coefficient   :   -1.3319256847e+00

 orbital energy:
    -2.7482377e-01 (  -7.478eV)
    -3.4429456e-01 (  -9.369eV)
    -5.0642677e-01 ( -13.781eV)
    -9.3408367e-01 ( -25.418eV)

== Center of Charge ==

spin up    = (    0.3274    -0.1283    -0.0911 )
spin down  = (    0.3274    -0.1283    -0.0911 )
     total = (    0.3274    -0.1283    -0.0911 )
ionic      = (    0.3419    -0.1460    -0.1894 )

== Molecular Dipole wrt Center of Mass ==

mu   = (    0.1158    -0.1414    -0.7864 ) au
|mu| =      0.8074 au (     2.0520 Debye )


 Ion Forces (au):
   1 O	(    0.00043   -0.00152    0.00500 )
   2 H	(   -0.00109   -0.00170   -0.00190 )
   3 H	(    0.00228    0.00174   -0.00131 )



*************************************************************
**                                                         **
**          PSPW Atomic Point Charge (APC) Analysis        **
**                                                         **
**   Point charge analysis based on paper by P.E. Blochl   **
**         (J. Chem. Phys. vol 103, page 7422, 1995)       **
**                                                         **
*************************************************************

 nwpw_APC object
 ---------------
 nga =   3 ngs =     9
 Gc  =   2.50000
 APC gamma: 0 0.60000
 APC gamma: 1 0.90000
 APC gamma: 2 1.35000
 - self-consistent

 APC Potential:
   0.032692607   0.018731490   0.019435046

 APC Point Charges:
  -0.743603553   0.372702565   0.370900988


 charge analysis on each atom
 ----------------------------

      no  atom        Qelc        Qion      Qtotal
   -----  ----     -------     -------     -------
       1    O       -6.744       6.000      -0.744
       2    H       -0.627       1.000       0.373
       3    H       -0.629       1.000       0.371
       Total Q      -8.000       8.000       0.000


 Gaussian coefficients of model density
 --------------------------------------

      no  atom     g=0.000     g=0.600     g=0.900     g=1.350
   -----  ----     -------     -------     -------     -------
       1     O       6.000      -1.103      -2.065      -3.576
       2     H       1.000      -0.717       0.773      -0.684
       3     H       1.000      -0.717       0.776      -0.688


 output psi to filename: ./nwchemex.movecs

 -----------------
 cputime in seconds
 prologue    : 2.186e-01
 main loop   : 7.533e+00
 epilogue    : 9.650e-02
 total       : 7.848e+00
 cputime/step: 2.511e-01 ( 30 evaluations, 9 linesearches)

 Time spent doing      total        step             percent
 total time            1.113648e+02 3.712160e+00     100.00%
 total FFT time        4.235557e+01 1.411852e+00      38.03%
 lagrange multipliers  1.853756e-02 6.179185e-04       0.02%
 local potentials      6.552728e-01 2.184243e-02       0.59%
 non-local potentials  2.256693e+00 7.522310e-02       2.03%
 ffm_dgemm             5.082342e-01 1.694114e-02       0.46%
 fmf_dgemm             1.048584e+00 3.495281e-02       0.94%
 m_diagonalize         1.949590e-03 6.498633e-05       0.00%
 mmm_multiply          1.973550e-04 6.578500e-06       0.00%
 SCVtrans              7.333550e-04 2.444517e-05       0.00%

 >>> job completed at     Mon Feb 20 12:58:46 2023 <<<
          *****************************************************
          *                                                   *
          *               PWDFT PSPW Calculation              *
          *                                                   *
          *  [ (Grassmann/Stiefel manifold implementation) ]  *
          *  [              C++ implementation             ]  *
          *                                                   *
          *              version #7.00   02/27/21             *
          *                                                   *
          *    This code was developed by Eric J. Bylaska,    *
          *    Abhishek Bagusetty, David H. Bross, ...        *
          *                                                   *
          *****************************************************
          >>> job started at       Mon Feb 20 12:58:46 2023 <<<

 psp_library: /home/sjplimp/nwchem/PWDFT/Nwpw/libraryps



 initializing nwpw_APC object
 ----------------------------
 nga =   3 ngs =     9
 Gc  =   2.50000
 APC gamma: 0 0.60000
 APC gamma: 1 0.90000
 APC gamma: 2 1.35000
 APC u:        1         0.03281
 APC u:        2         0.01879
 APC u:        3         0.01949
 - self-consistent

 reading formatted psp filename: ./O.vpp

 reading formatted psp filename: ./H.vpp
 input psi exists, reading from file: ./nwchemex.movecs

          ==============  summary of input  ==================

 input psi filename: ./nwchemex.movecs

 number of processors used: 2
 processor grid           : 2 x1
 parallel mapping         : 2d-hcurve
 parallel mapping         : balanced

 options:
   boundary conditions  = periodic
   electron spin        = restricted
   exchange-correlation = PBE96 (White and Bird) parameterization

 elements involved in the cluster:
      1: O   valence charge =  6.0  lmax =2
             comment = Parameterized (Chem.Phys.Lett., vol 322, page 447) Hamman psp 
             pseudopotential type            =  0
             highest angular component       =  2
             local potential used            =  2
             number of non-local projections =  4
             cutoff =    0.700   0.700   0.700
      2: H   valence charge =  1.0  lmax =1
             comment = Parameterized (Chem.Phys.Lett., vol 322, page 447) Hamman psp 
             pseudopotential type            =  0
             highest angular component       =  1
             local potential used            =  1
             number of non-local projections =  1
             cutoff =    0.800   0.800

 total charge =   0.000

 atom composition:
   O : 1   H : 2

 initial ion positions (au):
   1 O	(    0.30527   -0.10001    0.06300 ) - atomic mass = 15.995
   2 H	(    1.51778    0.69689   -0.96894 ) - atomic mass =  1.008
   3 H	(   -0.61424   -1.26510   -0.92492 ) - atomic mass =  1.008
   G.C.	(    0.40294   -0.22274   -0.61029 )
 C.O.M.	(    0.32167   -0.12061   -0.05004 )

 real space Electric field:
     Electric Field (au) = (   0.00000    0.00000    0.00000 )
             Center (au) = (   0.00000    0.00000    0.00000 )


 number of electrons: spin up =     4 (   4 per task) down =     4 (   4 per task)

 supercell:
      volume =   17575.98
      lattice:    a1 = <   26.000    0.000    0.000 >
                  a2 = <    0.000   26.000    0.000 >
                  a3 = <    0.000    0.000   26.000 >
      reciprocal: b1 = <    0.242    0.000    0.000 >
                  b2 = <    0.000    0.242    0.000 >
                  b3 = <    0.000    0.000    0.242 >
      lattice:    a =      26.000 b =     26.000 c =      26.000
                  alpha =  90.000 beta =  90.000 gamma =  90.000
      density cutoff = 60.000 fft =  96 x   96 x   96  (  195216 waves    97608 per task)
      wavefnc cutoff = 30.000 fft =  96 x   96 x   96  (   69013 waves    34507 per task)

 Ewald parameters:
      energy cutoff =  60.000 fft =  96 x   96 x   96  (  195216 waves    97608 per task)
      Ewald summation: cut radius =   8.276 and   1
                       Mandelung Wigner-Seitz =  1.76011888 (alpha =  2.83729748 rs = 16.12910517)

 technical parameters:
      fixed step: time step =        5.80  ficticious mass =   400000.00
      tolerance =   1.000e-09 (energy)    1.000e+00 (density)    1.000e-04 (ion)
      max iterations =       1000 (   10 inner   100 outer)
      minimizer = Grassmann conjugate gradient



     ============ Grassmann conjugate gradient iteration ============
          >>> iteration started at Mon Feb 20 12:58:46 2023  <<<
     iter.                 Energy          DeltaE        DeltaRho
     ----------------------------------------------------------------
        10      -1.719892131612e+01   -7.898464e-10    8.411012e-12
     *** tolerance ok. iteration terminated
          >>> iteration ended at   Mon Feb 20 12:58:53 2023  <<<

     ==============  energy results (Molecule object)  ==============


 number of electrons: spin up=     4.00000  down=     4.00000 (real space)


 APC Potential:
   0.032811295   0.018790019   0.019494618

 APC Point Charges:
  -0.743829157   0.372810198   0.371018959


 total     energy    :   -1.7198921316e+01 (   -5.73297e+00 /ion)
 total orbital energy:   -4.1194088789e+00 (   -1.02985e+00 /electron)
 hartree energy      :    1.8010750958e+01 (    4.50269e+00 /electron)
 exc-corr energy     :   -4.2444081521e+00 (   -1.06110e+00 /electron)
 APC energy          :   -1.0168014666e-02 (   -3.38934e-03 /ion)
 ion-ion energy      :    3.5936106189e+00 (    1.19787e+00 /ion)

 kinetic (planewave) :    1.2409848854e+01 (    3.10246e+00 /electron)
 V_local (planewave) :   -4.5789685270e+01 (   -1.14474e+01 /electron)
 V_nl    (planewave) :   -1.2567727982e+00 (   -3.14193e-01 /electron)
 V_Coul  (planewave) :    3.6021501916e+01 (    9.00538e+00 /electron)
 V_xc    (planewave) :   -5.5043015804e+00 (   -1.37608e+00 /electron)
 K.S. V_APC energy   :   -8.7902487999e-02 (   -2.93008e-02 /ion)
 Viral Coefficient   :   -1.3319467406e+00

 orbital energy:
    -2.7485717e-01 (  -7.479eV)
    -3.4437897e-01 (  -9.371eV)
    -5.0637575e-01 ( -13.779eV)
    -9.3409255e-01 ( -25.418eV)

== Center of Charge ==

spin up    = (    0.3274    -0.1283    -0.0911 )
spin down  = (    0.3274    -0.1283    -0.0911 )
     total = (    0.3274    -0.1283    -0.0911 )
ionic      = (    0.3419    -0.1460    -0.1895 )

== Molecular Dipole wrt Center of Mass ==

mu   = (    0.1159    -0.1415    -0.7870 ) au
|mu| =      0.8080 au (     2.0536 Debye )


 Ion Forces (au):
   1 O	(    0.00050   -0.00151    0.00486 )
   2 H	(   -0.00115   -0.00172   -0.00181 )
   3 H	(    0.00228    0.00175   -0.00126 )



*************************************************************
**                                                         **
**          PSPW Atomic Point Charge (APC) Analysis        **
**                                                         **
**   Point charge analysis based on paper by P.E. Blochl   **
**         (J. Chem. Phys. vol 103, page 7422, 1995)       **
**                                                         **
*************************************************************

 nwpw_APC object
 ---------------
 nga =   3 ngs =     9
 Gc  =   2.50000
 APC gamma: 0 0.60000
 APC gamma: 1 0.90000
 APC gamma: 2 1.35000
 - self-consistent

 APC Potential:
   0.032811295   0.018790019   0.019494618

 APC Point Charges:
  -0.743829157   0.372810198   0.371018959


 charge analysis on each atom
 ----------------------------

      no  atom        Qelc        Qion      Qtotal
   -----  ----     -------     -------     -------
       1    O       -6.744       6.000      -0.744
       2    H       -0.627       1.000       0.373
       3    H       -0.629       1.000       0.371
       Total Q      -8.000       8.000       0.000


 Gaussian coefficients of model density
 --------------------------------------

      no  atom     g=0.000     g=0.600     g=0.900     g=1.350
   -----  ----     -------     -------     -------     -------
       1     O       6.000      -1.104      -2.063      -3.577
       2     H       1.000      -0.717       0.773      -0.683
       3     H       1.000      -0.717       0.775      -0.687


 output psi to filename: ./nwchemex.movecs

 -----------------
 cputime in seconds
 prologue    : 2.188e-01
 main loop   : 7.299e+00
 epilogue    : 9.706e-02
 total       : 7.615e+00
 cputime/step: 2.517e-01 ( 29 evaluations, 9 linesearches)

 Time spent doing      total        step             percent
 total time            1.190131e+02 4.103901e+00     100.00%
 total FFT time        4.524319e+01 1.560110e+00      38.02%
 lagrange multipliers  1.853756e-02 6.392260e-04       0.02%
 local potentials      7.144996e-01 2.463792e-02       0.60%
 non-local potentials  2.405749e+00 8.295688e-02       2.02%
 ffm_dgemm             5.433286e-01 1.873547e-02       0.46%
 fmf_dgemm             1.122774e+00 3.871633e-02       0.94%
 m_diagonalize         2.034003e-03 7.013803e-05       0.00%
 mmm_multiply          2.063150e-04 7.114310e-06       0.00%
 SCVtrans              7.696860e-04 2.654090e-05       0.00%

 >>> job completed at     Mon Feb 20 12:58:53 2023 <<<
